*Heading
** Job name: CPT_90_MCM_einpressen_Voll1 Model name: CPT_90_MCM_einpressen_Voll1
** Generated by: Abaqus/CAE 2023
*Preprint, echo=NO, model=NO, history=NO, contact=NO
**
** PARTS
**
*Part, name=Pile
*Node
      1,           0., -0.300000012,           1.
      2,           0.,           0.,           1.
      3, -0.300000012,           0.,           1.
      4,           0., -0.300000012,           2.
      5,           0.,           0.,           2.
      6, -0.300000012,           0.,           2.
      7,           0., -0.300000012,           3.
      8,           0.,           0.,           3.
      9, -0.300000012,           0.,           3.
     10,           0., -0.300000012,           4.
     11,           0.,           0.,           4.
     12, -0.300000012,           0.,           4.
     13,           0., -0.300000012,           5.
     14,           0.,           0.,           5.
     15, -0.300000012,           0.,           5.
     16,           0., -0.300000012,           6.
     17,           0.,           0.,           6.
     18, -0.300000012,           0.,           6.
     19,           0., -0.300000012,           7.
     20,           0.,           0.,           7.
** ... 97 like lines cut
*Element, type=C3D8R
1, 66,  1,  2,  3, 67,  4,  5,  6
2, 67,  4,  5,  6, 68,  7,  8,  9
3, 68,  7,  8,  9, 69, 10, 11, 12
4, 69, 10, 11, 12, 70, 13, 14, 15
5, 70, 13, 14, 15, 71, 16, 17, 18
6, 71, 16, 17, 18, 72, 19, 20, 21
7, 72, 19, 20, 21, 73, 22, 23, 24
8, 73, 22, 23, 24, 74, 25, 26, 27
 9, 74, 25, 26, 27, 75, 28, 29, 30
10, 75, 28, 29, 30, 76, 31, 32, 33
11, 76, 31, 32, 33, 77, 34, 35, 36
12, 37, 32, 33, 78, 38, 29, 30, 79
13, 38, 29, 30, 79, 39, 26, 27, 80
14, 39, 26, 27, 80, 40, 23, 24, 81
15, 40, 23, 24, 81, 41, 20, 21, 82
16, 41, 20, 21, 82, 42, 17, 18, 83
17, 42, 17, 18, 83, 43, 14, 15, 84
18, 43, 14, 15, 84, 44, 11, 12, 85
19, 44, 11, 12, 85, 45,  8,  9, 86
20, 45,  8,  9, 86, 46,  5,  6, 87
** ... 28 like lines cut
*Nset, nset=Pile_All, generate
   1,  117,    1
*Elset, elset=Pile_All, generate
  1,  48,   1
*Nset, nset=Force_Application
  34,  35,  36,  51,  65,  77,  90, 115, 116
*Elset, elset=Force_Application
 11, 23, 46, 47
*Nset, nset=spitzendruck
  48,  49,  50,  63,  64,  89, 102, 104, 117
*Elset, elset=spitzendruck
 22, 34, 35, 48
*Nset, nset=CylindersFaces0
  48,  49,  50,  63,  64,  89, 102, 104, 117
*Elset, elset=CylindersFaces0
 22, 34, 35, 48
*Nset, nset=CylindersFaces1
   1,   2,   3,  47,  62,  66,  88, 101, 103
*Elset, elset=CylindersFaces1
  1, 21, 22, 33, 34, 35, 36, 48
*Nset, nset=CylindersFaces2
   4,   5,   6,  46,  61,  67,  87, 100, 105
*Elset, elset=CylindersFaces2
  1,  2, 20, 21, 32, 33, 36, 37
*Nset, nset=CylindersFaces3
   7,   8,   9,  45,  60,  68,  86,  99, 106
*Elset, elset=CylindersFaces3
  2,  3, 19, 20, 31, 32, 37, 38
*Nset, nset=CylindersFaces4
  10,  11,  12,  44,  59,  69,  85,  98, 107
*Elset, elset=CylindersFaces4
  3,  4, 18, 19, 30, 31, 38, 39
*Nset, nset=CylindersFaces5
  13,  14,  15,  43,  58,  70,  84,  97, 108
*Elset, elset=CylindersFaces5
  4,  5, 17, 18, 29, 30, 39, 40
*Nset, nset=CylindersFaces6
  16,  17,  18,  42,  57,  71,  83,  96, 109
*Elset, elset=CylindersFaces6
  5,  6, 16, 17, 28, 29, 40, 41
*Nset, nset=CylindersFaces7
  19,  20,  21,  41,  56,  72,  82,  95, 110
*Elset, elset=CylindersFaces7
  6,  7, 15, 16, 27, 28, 41, 42
*Nset, nset=CylindersFaces8
  22,  23,  24,  40,  55,  73,  81,  94, 111
*Elset, elset=CylindersFaces8
  7,  8, 14, 15, 26, 27, 42, 43
*Nset, nset=CylindersFaces9
  25,  26,  27,  39,  54,  74,  80,  93, 112
*Elset, elset=CylindersFaces9
  8,  9, 13, 14, 25, 26, 43, 44
*Nset, nset=CylindersFaces10
  28,  29,  30,  38,  53,  75,  79,  92, 113
*Elset, elset=CylindersFaces10
  9, 10, 12, 13, 24, 25, 44, 45
*Nset, nset=CylindersFaces11
  31,  32,  33,  37,  52,  76,  78,  91, 114
*Elset, elset=CylindersFaces11
 10, 11, 12, 23, 24, 45, 46, 47
*Nset, nset=CylindersFaces12
  34,  35,  36,  51,  65,  77,  90, 115, 116
*Elset, elset=CylindersFaces12
 11, 23, 46, 47
*Elset, elset=_Mantel_S5, internal
 12, 13, 14, 15, 16, 17, 18, 19, 20, 21, 22, 24, 25, 26, 27, 28
 29, 30, 31, 32, 33, 34, 35
*Elset, elset=_Mantel_S6, internal
  1,  2,  3,  4,  5,  6,  7,  8,  9, 10, 11, 12, 13, 14, 15, 16
 17, 18, 19, 20, 21, 22, 24, 25, 26, 27, 28, 29, 30, 31, 32, 33
 34, 35, 48
*Elset, elset=_Mantel_S3, internal
  1,  2,  3,  4,  5,  6,  7,  8,  9, 10, 11, 23, 36, 37, 38, 39
 40, 41, 42, 43, 44, 45, 46, 47, 48
*Elset, elset=_Mantel_S4, internal
 23, 36, 37, 38, 39, 40, 41, 42, 43, 44, 45, 46, 47
*Surface, type=ELEMENT, name=Mantel
_Mantel_S5, S5
_Mantel_S6, S6
_Mantel_S4, S4
_Mantel_S3, S3
*Elset, elset=_Pile_Surface_S5, internal
 12, 13, 14, 15, 16, 17, 18, 19, 20, 21, 22, 24, 25, 26, 27, 28
 29, 30, 31, 32, 33, 34, 35
*Elset, elset=_Pile_Surface_S6, internal
  1,  2,  3,  4,  5,  6,  7,  8,  9, 10, 11, 12, 13, 14, 15, 16
 17, 18, 19, 20, 21, 22, 24, 25, 26, 27, 28, 29, 30, 31, 32, 33
 34, 35, 48
*Elset, elset=_Pile_Surface_S2, internal
 11, 22, 23, 34, 35, 46, 47, 48
*Elset, elset=_Pile_Surface_S3, internal
  1,  2,  3,  4,  5,  6,  7,  8,  9, 10, 11, 23, 36, 37, 38, 39
 40, 41, 42, 43, 44, 45, 46, 47, 48
*Elset, elset=_Pile_Surface_S4, internal
 23, 36, 37, 38, 39, 40, 41, 42, 43, 44, 45, 46, 47
*Surface, type=ELEMENT, name=Pile_Surface
_Pile_Surface_S5, S5
_Pile_Surface_S6, S6
_Pile_Surface_S2, S2
_Pile_Surface_S4, S4
_Pile_Surface_S3, S3
*Elset, elset=_spitzendruck_S2, internal
 22, 34, 35, 48
*Surface, type=ELEMENT, name=spitzendruck
_spitzendruck_S2, S2
** Section: Pile_Section
*Solid Section, elset=Pile_All, material=Stahl
,
*End Part
**  
*Part, name=Presse
*Node
      1, -0.212132037,  0.212132037,           0.
      2, -0.300000012,           0.,           0.
      3, -0.212132037, -0.212132037,           0.
      4,           0., -0.300000012,           0.
      5,  0.212132037, -0.212132037,           0.
      6,  0.300000012,           0.,           0.
      7,  0.212132037,  0.212132037,           0.
      8,           0.,  0.300000012,           0.
      9,           0., 1.98682137e-09,           0.
     10, -0.212132037,  0.212132037,           1.
     11, -0.300000012,           0.,           1.
     12, -0.212132037, -0.212132037,           1.
     13,           0., -0.300000012,           1.
     14,  0.212132037, -0.212132037,           1.
     15,  0.300000012,           0.,           1.
     16,  0.212132037,  0.212132037,           1.
     17,           0.,  0.300000012,           1.
     18,           0., 1.98682137e-09,           1.
*Element, type=C3D8R
1, 18, 17, 16, 15,  9,  8,  7,  6
2, 18, 11, 10, 17,  9,  2,  1,  8
3, 14, 13, 18, 15,  5,  4,  9,  6
4, 18, 13, 12, 11,  9,  4,  3,  2
*Node
     19,           0.,           0.,           1.
*Nset, nset=Presse-RefPt_, internal
19, 
*Nset, nset=Presse_RP
 19,
*Nset, nset=Presse_All, generate
  1,  18,   1
*Elset, elset=Presse_All, generate
 1,  4,  1
*Nset, nset=Presse_Unten, generate
 1,  9,  1
*Elset, elset=Presse_Unten, generate
 1,  4,  1
** Section: Presse_Section
*Solid Section, elset=Presse_All, material=Stahl
,
*End Part
**  
*Part, name=Soil
*Node
      1,           0.,          1.5,          23.
      2,           0.,          4.5,          23.
      3,           0.,          4.5,         12.5
      4,           0.,          1.5,         12.5
      5,          4.5,           0.,          23.
      6,          1.5,           0.,          23.
      7,          1.5,           0.,         12.5
      8,          4.5,           0.,         12.5
      9,           0.,           0.,          23.
     10,           0.,           0.,         12.5
     11,           0.,          1.5,           0.
     12,          1.5,           0.,           0.
     13,           0.,           0.,           0.
     14,          4.5,           0.,          27.
     15,          1.5,           0.,          27.
     16,           0.,          1.5,          27.
     17,           0.,          4.5,          27.
     18,           0.,           0.,          27.
     19,          1.5,           0.,          28.
     20,           0.,          1.5,          28.
** ... 32818 like lines cut
*Element, type=EC3D8R
   1,  1004,  1005,  1070,  1254,  9484,  9485,  9550,  9734
   2,  1149,  1074,  1038,  1076,  9629,  9554,  9518,  9556
   3,    41,  1240,    42,     2,  1675,  9720,  2791,   157
   4,  1205,  1072,  1150,  1185,  9685,  9552,  9630,  9665
   5,    43,    42,  1240,  1247,  2792,  2791,  9720,  9727
   6,  1032,  1076,  1038,  1252,  9512,  9556,  9518,  9732
   7,    36,  1004,  1254,    37,  1680,  9484,  9734,  1679
   8,   115,  1015,  1265,   116,  1777,  9495,  9745,  1776
   9,  1018,   109,   108,  1263,  9498,  1783,  1784,  9743
  10,  1069,  1258,   988,  1291,  9549,  9738,  9468,  9771
  11,  1317,  1314,  1315,  1181,  9797,  9794,  9795,  9661
  12,    52,  1242,    53,     3,  2801,  9722,  2923,   182
  13,  1206,  1182,  1203,  1220,  9686,  9662,  9683,  9700
  14,    73,    72,  1052,   995,  1819,  1820,  9532,  9475
  15,   997,    69,    68,  1054,  9477,  1823,  1824,  9534
  16,  1250,    64,    63,  1056,  9730,  1828,  1829,  9536
  17,  1002,  1071,  1057,  1001,  9482,  9551,  9537,  9481
  18,  1003,    59,     4,    58,  9483,  1833,   170,  2928
  19,  1004,    36,     1,   145,  9484,  1680,   158,  1747
  20,   145,   144,  1005,  1004,  1747,  1748,  9485,  9484
** ... 29398 like lines cut
*Nset, nset=sketchFace
   19,   20,   21,   32,   33,   34,   35,  688,  689,  690,  691,  692,  693,  694,  695,  696
  697,  698,  699,  700,  701,  702,  703,  704,  705,  706,  707,  708,  709,  710,  711,  712
  713,  714,  715,  716,  717,  718,  719,  720,  721,  722,  723,  724,  915,  916,  917,  918
  919,  920,  921,  922,  929,  930,  931,  932,  933,  934,  935,  936,  937,  938,  939,  940
  941,  942,  943,  944,  945,  946,  947,  948,  949,  950,  951,  952,  959,  960,  961,  962
  963,  964,  965,  966,  973,  974,  975,  976,  977,  978,  979,  980,  981,  982,  983,  984
  985,  986, 7475, 7476, 7477, 7478, 7479, 7480, 7481, 7482, 7483, 7484, 7485, 7486, 7487, 7488
 7489, 7490, 7491, 7492, 7493, 7494, 7495, 7496, 7497, 7498, 7499, 7500, 7501, 7502, 7503, 7504
 7505, 7506, 7507, 7508, 7509, 7510, 7511, 7512, 7513, 7514, 7515, 7516, 7517, 7518, 7519, 7520
 7521, 7522, 7523, 7524, 7525, 7526, 7527, 7528, 7529, 7530, 7531, 7532, 7533, 7534, 7535, 7536
 7537, 7538, 7539, 7540, 7541, 7542, 7543, 7544, 7545, 7546, 7547, 7548, 7549, 7550, 7551, 7552
 7553, 7554, 7555, 7556, 7557, 7558, 7559, 7560, 7561, 7562, 7563, 7564, 7565, 7566, 7567, 7568
 7569, 7570, 7571, 7572, 7573, 7574, 7575, 7576, 7577, 7578, 7579, 7580, 9203, 9204, 9205, 9206
 9207, 9208, 9209, 9210, 9211, 9212, 9213, 9214, 9215, 9216, 9217, 9218, 9219, 9220, 9221, 9222
 9223, 9224, 9225, 9226, 9227, 9228, 9229, 9230, 9231, 9232, 9233, 9234, 9235, 9236, 9237, 9238
 9239, 9240, 9241, 9242, 9243, 9244, 9245, 9246, 9247, 9248, 9249, 9250, 9251, 9252, 9253, 9254
 9255, 9256, 9257, 9258, 9259, 9260, 9261, 9262, 9263, 9264, 9265, 9266, 9267, 9268, 9269, 9270
 9271, 9272, 9273, 9274, 9275, 9276, 9277, 9278, 9279, 9280, 9281, 9282, 9283, 9284, 9285, 9286
 9287, 9288, 9289, 9290, 9291, 9292, 9293, 9294, 9295, 9296, 9297, 9298, 9383, 9384, 9385, 9386
 9387, 9388, 9389, 9390, 9391, 9392, 9393, 9394, 9395, 9396, 9397, 9398, 9399, 9400, 9401, 9402
** ... 4 like lines cut
*Elset, elset=sketchFace
 24237, 24238, 24239, 24240, 24241, 24242, 24243, 24244, 24245, 24246, 24247, 24248, 24249, 24250, 24251, 24252
 24253, 24254, 24255, 24256, 24257, 24258, 24259, 24260, 24261, 24262, 24263, 24264, 24265, 24266, 24267, 24268
 24269, 24270, 24271, 24272, 24273, 24274, 24275, 24276, 24277, 24278, 24279, 24280, 24281, 24282, 24283, 24284
 24285, 24286, 24287, 24288, 24289, 24290, 24291, 24292, 24293, 24294, 24295, 24296, 24297, 24298, 24299, 24300
 24301, 24302, 24303, 24304, 24305, 24306, 24307, 24308, 24309, 24310, 24311, 24312, 24313, 24314, 24315, 24316
 24317, 24318, 24319, 24320, 24321, 24322, 24323, 24324, 24325, 24326, 24327, 24328, 24329, 24330, 24331, 24332
 24333, 24334, 24335, 24336, 24337, 24338, 24339, 24340, 24341, 24342, 24343, 24344, 24345, 24346, 24347, 24348
 24349, 24350, 24351, 24352, 24353, 24354, 24355, 24356, 24357, 24358, 24359, 24360, 24361, 27926, 27927, 27928
 27929, 27930, 27931, 27932, 27933, 27934, 27989, 27990, 27991, 27992, 27993, 27994, 27995, 27996, 27997, 28052
 28053, 28054, 28055, 28056, 28057, 28058, 28059, 28060, 28115, 28116, 28117, 28118, 28119, 28120, 28121, 28122
 28123, 28178, 28179, 28180, 28181, 28182, 28183, 28184, 28185, 28186, 28241, 28242, 28243, 28244, 28245, 28246
 28247, 28248, 28249, 28304, 28305, 28306, 28307, 28308, 28309, 28310, 28311, 28312, 28367, 28368, 28369, 28370
 28371, 28372, 28373, 28374, 28375, 28430, 28431, 28432, 28433, 28434, 28435, 28436, 28437, 28438, 28493, 28494
 28495, 28496, 28497, 28498, 28499, 28500, 28501, 28556, 28557, 28558, 28559, 28560, 28561, 28562, 28563, 28564
 28619, 28620, 28621, 28622, 28623, 28624, 28625, 28626, 28627, 28682, 28683, 28684, 28685, 28686, 28687, 28688
 28689, 28690, 28739, 28740, 28741, 28742, 28743, 28744, 28745, 28746, 28795, 28796, 28797, 28798, 28799, 28800
 28801, 28802, 28851, 28852, 28853, 28854, 28855, 28856, 28857, 28858, 28907, 28908, 28909, 28910, 28911, 28912
 28913, 28914, 28963, 28964, 28965, 28966, 28967, 28968, 28969, 28970, 29019, 29020, 29021, 29022, 29023, 29024
 29025, 29026, 29075, 29076, 29077, 29078, 29079, 29080, 29081, 29082, 29131, 29132, 29133, 29134, 29135, 29136
 29137, 29138, 29187, 29188, 29189, 29190, 29191, 29192, 29193, 29194, 29243, 29244, 29245, 29246, 29247, 29248
 29249, 29250, 29299, 29300, 29301, 29302, 29303, 29304, 29305, 29306, 29355, 29356, 29357, 29358, 29359, 29360
 29361, 29362, 29411, 29412, 29413, 29414, 29415, 29416, 29417, 29418
*Nset, nset=sketchUpEdge
  19,  20,  21,  32,  33,  34, 688, 689, 690, 691, 692, 693, 694, 695, 696, 697
 698, 699, 700, 701, 702, 703, 704, 705, 706, 707, 708, 709, 710, 711, 712, 915
 916, 917, 918, 919, 920, 921, 922, 929, 930, 931, 932, 933, 934, 935, 936, 937
 938, 939, 940, 980, 981, 982, 983, 984, 985, 986
*Elset, elset=sketchUpEdge
 24237, 24239, 24240, 24241, 24242, 24243, 24244, 24247, 24249, 24250, 24259, 24260, 24261, 24268, 24270, 24272
 24274, 24314, 24322, 24344, 24348, 24352, 24353, 24355, 24356, 24358, 27926, 27927, 27928, 27929, 27930, 27931
 27932, 27933, 27934, 27989, 28052, 28115, 28178, 28241, 28304, 28367, 28430, 28493, 28556, 28619, 28682, 28739
 28795, 28851, 28907, 28963, 29019, 29075, 29131, 29187, 29243, 29299, 29355, 29411, 29412, 29413, 29414, 29415
 29416, 29417, 29418
*Nset, nset=Soil_All, generate
     1,  32838,      1
*Elset, elset=Soil_All, generate
     1,  29418,      1
*Nset, nset=Bottom
   11,   12,   13,   27,   28,   30,   31,  468,  469,  470,  471,  472,  473,  474,  475,  476
  477,  478,  479,  480,  481,  482,  483,  484,  485,  486,  487,  488,  489,  490,  491,  492
  493,  494,  495,  496,  497,  498,  499,  500,  501,  502,  503,  504,  804,  805,  806,  807
  808,  809,  810,  811,  833,  834,  835,  836,  837,  838,  839,  840,  841,  842,  843,  844
  845,  846,  847,  848,  849,  850,  851,  852,  853,  854,  855,  856,  874,  875,  876,  877
  878,  879,  880,  881,  891,  892,  893,  894,  895,  896,  897,  898,  899,  900,  901,  902
 5382, 5383, 5384, 5385, 5386, 5387, 5388, 5389, 5390, 5391, 5392, 5393, 5394, 5395, 5396, 5397
 5398, 5399, 5400, 5401, 5402, 5403, 5404, 5405, 5406, 5407, 5408, 5409, 5410, 5411, 5412, 5413
 5414, 5415, 5416, 5417, 5418, 5419, 5420, 5421, 5422, 5423, 5424, 5425, 5426, 5427, 5428, 5429
 5430, 5431, 5432, 5433, 5434, 5435, 5436, 5437, 5438, 5439, 5440, 5441, 5442, 5443, 5444, 5445
 5446, 5447, 5448, 5449, 5450, 5451, 5452, 5453, 5454, 5455, 5456, 5457, 5458, 5459, 5460, 5461
 5462, 5463, 5464, 5465, 5466, 5467, 5468, 5469, 5470, 5471, 5472, 5473, 5474, 5475, 5476, 5477
 5478, 5479, 5480, 5481, 5482, 5483, 5484, 5485, 5486, 5487, 8535, 8536, 8537, 8538, 8539, 8540
 8541, 8542, 8543, 8544, 8545, 8546, 8547, 8548, 8549, 8550, 8551, 8552, 8553, 8554, 8555, 8556
 8557, 8558, 8559, 8560, 8561, 8562, 8563, 8564, 8565, 8566, 8567, 8568, 8569, 8570, 8571, 8572
 8573, 8574, 8575, 8576, 8577, 8578, 8579, 8580, 8581, 8582, 8583, 8584, 8585, 8586, 8587, 8588
 8589, 8590, 8591, 8592, 8593, 8594, 8595, 8596, 8597, 8598, 8599, 8600, 8601, 8602, 8603, 8604
 8605, 8606, 8607, 8608, 8609, 8610, 8611, 8612, 8613, 8614, 8615, 8616, 8617, 8618, 8619, 8620
 8621, 8622, 8623, 8624, 8625, 8626, 8627, 8628, 8629, 8630, 8739, 8740, 8741, 8742, 8743, 8744
 8745, 8746, 8747, 8748, 8749, 8750, 8751, 8752, 8753, 8754, 8755, 8756, 8757, 8758, 8759, 8760
** ... 4 like lines cut
*Elset, elset=Bottom
 17326, 17327, 17328, 17329, 17330, 17331, 17332, 17333, 17334, 17335, 17336, 17337, 17338, 17339, 17340, 17341
 17342, 17343, 17344, 17345, 17346, 17347, 17348, 17349, 17350, 17351, 17352, 17353, 17354, 17355, 17356, 17357
 17358, 17359, 17360, 17361, 17362, 17363, 17364, 17365, 17366, 17367, 17368, 17369, 17370, 17371, 17372, 17373
 17374, 17375, 17376, 17377, 17378, 17379, 17380, 17381, 17382, 17383, 17384, 17385, 17386, 17387, 17388, 17389
 17390, 17391, 17392, 17393, 17394, 17395, 17396, 17397, 17398, 17399, 17400, 17401, 17402, 17403, 17404, 17405
 17406, 17407, 17408, 17409, 17410, 17411, 17412, 17413, 17414, 17415, 17416, 17417, 17418, 17419, 17420, 17421
 17422, 17423, 17424, 17425, 17426, 17427, 17428, 17429, 17430, 17431, 17432, 17433, 17434, 17435, 17436, 17437
 17438, 17439, 17440, 17441, 17442, 17443, 17444, 17445, 17446, 17447, 17448, 17449, 17450, 24911, 24912, 24913
 24914, 24915, 24916, 24917, 24918, 24919, 25001, 25002, 25003, 25004, 25005, 25006, 25007, 25008, 25009, 25091
 25092, 25093, 25094, 25095, 25096, 25097, 25098, 25099, 25181, 25182, 25183, 25184, 25185, 25186, 25187, 25188
 25189, 25271, 25272, 25273, 25274, 25275, 25276, 25277, 25278, 25279, 25361, 25362, 25363, 25364, 25365, 25366
 25367, 25368, 25369, 25451, 25452, 25453, 25454, 25455, 25456, 25457, 25458, 25459, 25541, 25542, 25543, 25544
 25545, 25546, 25547, 25548, 25549, 25631, 25632, 25633, 25634, 25635, 25636, 25637, 25638, 25639, 25721, 25722
 25723, 25724, 25725, 25726, 25727, 25728, 25729, 25811, 25812, 25813, 25814, 25815, 25816, 25817, 25818, 25819
 25901, 25902, 25903, 25904, 25905, 25906, 25907, 25908, 25909, 25991, 25992, 25993, 25994, 25995, 25996, 25997
 25998, 25999, 26063, 26064, 26065, 26066, 26067, 26068, 26069, 26133, 26134, 26135, 26136, 26137, 26138, 26139
 26203, 26204, 26205, 26206, 26207, 26208, 26209, 26273, 26274, 26275, 26276, 26277, 26278, 26279, 26343, 26344
 26345, 26346, 26347, 26348, 26349, 26413, 26414, 26415, 26416, 26417, 26418, 26419, 26483, 26484, 26485, 26486
 26487, 26488, 26489, 26553, 26554, 26555, 26556, 26557, 26558, 26559, 26623, 26624, 26625, 26626, 26627, 26628
 26629, 26693, 26694, 26695, 26696, 26697, 26698, 26699, 26763, 26764, 26765, 26766, 26767, 26768, 26769, 26833
 26834, 26835, 26836, 26837, 26838, 26839, 26903, 26904, 26905, 26906, 26907, 26908, 26909
*Nset, nset=Back
   22,   23,   24,   25,   26,   28,   29,   30,   33,   34,  741,  742,  743,  744,  745,  746
  747,  748,  749,  750,  751,  752,  753,  754,  755,  756,  757,  758,  759,  760,  761,  762
  763,  764,  765,  766,  767,  776,  777,  778,  812,  813,  814,  815,  816,  817,  818,  819
  820,  821,  822,  823,  824,  825,  826,  827,  828,  829,  830,  831,  832,  833,  834,  835
  836,  837,  838,  839,  840,  841,  842,  843,  844,  865,  866,  867,  868,  869,  870,  871
  872,  873,  903,  904,  905,  906,  907,  908,  923,  924,  925,  926,  927,  928,  929,  930
  931,  932,  933,  934,  935,  936,  937,  938,  939,  940,  953,  954,  955,  956,  957,  958
 7851, 7852, 7853, 7854, 7855, 7856, 7857, 7858, 7859, 7860, 7861, 7862, 7863, 7864, 7865, 7866
 7867, 7868, 7869, 7870, 7871, 7872, 7873, 7874, 7875, 7876, 7877, 7878, 7879, 7880, 7881, 7882
 7883, 7884, 7885, 7886, 8319, 8320, 8321, 8322, 8323, 8324, 8325, 8326, 8327, 8328, 8329, 8330
 8331, 8332, 8333, 8334, 8335, 8336, 8337, 8338, 8339, 8340, 8341, 8342, 8343, 8344, 8345, 8346
 8347, 8348, 8349, 8350, 8351, 8352, 8353, 8354, 8355, 8356, 8357, 8358, 8359, 8360, 8361, 8362
 8363, 8364, 8365, 8366, 8367, 8368, 8369, 8370, 8371, 8372, 8373, 8374, 8375, 8376, 8377, 8378
 8379, 8380, 8381, 8382, 8383, 8384, 8385, 8386, 8387, 8388, 8389, 8390, 8391, 8392, 8393, 8394
 8395, 8396, 8397, 8398, 8399, 8400, 8401, 8402, 8403, 8404, 8405, 8406, 8407, 8408, 8409, 8410
 8411, 8412, 8413, 8414, 8415, 8416, 8417, 8418, 8419, 8420, 8421, 8422, 8423, 8424, 8425, 8426
 8927, 8928, 8929, 8930, 8931, 8932, 8933, 8934, 8935, 8936, 8937, 8938, 8939, 8940, 8941, 8942
 8943, 8944, 8945, 8946, 8947, 8948, 8949, 8950, 8951, 8952, 8953, 8954, 8955, 8956, 8957, 8958
 8959, 8960, 8961, 8962, 9059, 9060, 9061, 9062, 9063, 9064, 9065, 9066, 9067, 9068, 9069, 9070
 9071, 9072, 9073, 9074, 9075, 9076, 9077, 9078, 9079, 9080, 9081, 9082, 9083, 9084, 9085, 9086
 9087, 9088, 9089, 9090, 9091, 9092, 9093, 9094, 9095, 9096, 9097, 9098, 9099, 9100, 9101, 9102
 9103, 9104, 9105, 9106, 9107, 9108, 9109, 9110, 9111, 9112, 9113, 9114, 9115, 9116, 9117, 9118
 9119, 9120, 9121, 9122, 9123, 9124, 9125, 9126, 9127, 9128, 9129, 9130
*Elset, elset=Back
 24362, 24371, 24380, 24389, 24398, 24407, 24416, 24425, 24434, 24443, 24452, 24461, 24470, 24479, 24488, 24497
 24506, 24515, 24524, 24533, 24542, 24551, 24560, 24569, 24578, 24587, 24596, 24605, 24614, 24623, 24632, 24641
 24650, 24659, 24668, 24677, 24686, 24695, 24704, 24713, 24722, 24731, 24740, 24749, 24758, 24767, 24776, 24785
 24794, 24803, 24812, 24821, 24830, 24839, 24848, 24857, 24866, 24875, 24884, 24893, 24902, 24911, 24920, 24929
 24938, 24947, 24956, 24965, 24974, 24983, 24992, 25001, 25010, 25019, 25028, 25037, 25046, 25055, 25064, 25073
 25082, 25091, 25100, 25109, 25118, 25127, 25136, 25145, 25154, 25163, 25172, 25181, 25190, 25199, 25208, 25217
 25226, 25235, 25244, 25253, 25262, 25271, 25280, 25289, 25298, 25307, 25316, 25325, 25334, 25343, 25352, 25361
 25370, 25379, 25388, 25397, 25406, 25415, 25424, 25433, 25442, 25451, 25460, 25469, 25478, 25487, 25496, 25505
 25514, 25523, 25532, 25541, 25550, 25559, 25568, 25577, 25586, 25595, 25604, 25613, 25622, 25631, 25640, 25649
 25658, 25667, 25676, 25685, 25694, 25703, 25712, 25721, 25730, 25739, 25748, 25757, 25766, 25775, 25784, 25793
 25802, 25811, 25820, 25829, 25838, 25847, 25856, 25865, 25874, 25883, 25892, 25901, 25910, 25919, 25928, 25937
 25946, 25955, 25964, 25973, 25982, 25991, 26911, 26916, 26917, 26976, 26985, 26990, 26991, 27050, 27059, 27064
 27065, 27124, 27133, 27138, 27139, 27198, 27207, 27212, 27213, 27272, 27281, 27286, 27287, 27346, 27355, 27360
 27361, 27420, 27429, 27434, 27435, 27494, 27503, 27508, 27509, 27568, 27577, 27582, 27583, 27642, 27651, 27656
 27657, 27716, 27725, 27730, 27731, 27790, 27799, 27804, 27805, 27864, 27872, 27881, 27890, 27899, 27908, 27917
 27926, 27935, 27944, 27953, 27962, 27971, 27980, 27989, 27998, 28007, 28016, 28025, 28034, 28043, 28052, 28061
 28070, 28079, 28088, 28097, 28106, 28115, 28124, 28133, 28142, 28151, 28160, 28169, 28178, 28187, 28196, 28205
 28214, 28223, 28232, 28241, 28250, 28259, 28268, 28277, 28286, 28295, 28304, 28313, 28322, 28331, 28340, 28349
 28358, 28367, 28376, 28385, 28394, 28403, 28412, 28421, 28430, 28439, 28448, 28457, 28466, 28475, 28484, 28493
 28502, 28511, 28520, 28529, 28538, 28547, 28556, 28565, 28574, 28583, 28592, 28601, 28610, 28619, 28628, 28637
 28646, 28655, 28664, 28673, 28682
*Nset, nset=XZ_Face
    5,    6,    7,    8,    9,   10,   12,   13,   14,   15,   18,   19,   21,   24,   25,   26
   27,   28,   34,   35,  194,  195,  196,  197,  198,  199,  200,  201,  202,  203,  204,  205
  206,  207,  208,  209,  210,  211,  212,  213,  214,  215,  216,  217,  218,  219,  220,  221
  222,  223,  224,  225,  226,  227,  228,  229,  230,  231,  232,  233,  234,  235,  236,  237
  238,  239,  240,  241,  242,  243,  244,  245,  246,  247,  248,  249,  250,  251,  252,  253
  254,  255,  256,  257,  258,  259,  260,  261,  262,  263,  264,  265,  266,  267,  268,  269
  270,  271,  272,  273,  274,  275,  276,  277,  278,  279,  280,  281,  282,  283,  284,  285
  286,  287,  288,  289,  290,  291,  292,  293,  294,  295,  296,  297,  298,  299,  300,  301
  302,  303,  317,  318,  319,  320,  321,  322,  323,  324,  325,  326,  327,  328,  329,  330
  331,  332,  333,  334,  335,  336,  337,  338,  339,  340,  341,  342,  343,  344,  345,  346
  347,  348,  349,  350,  351,  352,  353,  354,  355,  356,  357,  358,  359,  360,  361,  362
  363,  364,  365,  366,  367,  368,  369,  370,  371,  372,  373,  374,  375,  376,  377,  378
  379,  380,  381,  382,  383,  384,  385,  386,  387,  388,  389,  390,  391,  392,  393,  394
  395,  396,  397,  398,  399,  400,  401,  402,  403,  404,  405,  406,  407,  408,  409,  410
  411,  412,  413,  414,  415,  429,  430,  431,  432,  433,  434,  435,  436,  437,  438,  439
  440,  450,  451,  452,  453,  454,  455,  456,  457,  458,  459,  460,  461,  462,  463,  464
  465,  466,  467,  480,  481,  482,  483,  484,  485,  486,  487,  488,  489,  490,  491,  505
  506,  507,  508,  509,  510,  511,  512,  513,  514,  515,  516,  517,  518,  519,  520,  521
  522,  523,  524,  525,  526,  527,  528,  529,  530,  531,  532,  533,  534,  535,  536,  537
  538,  539,  540,  541,  542,  543,  544,  545,  546,  613,  614,  615,  616,  617,  618,  619
** ... 158 like lines cut
*Elset, elset=XZ_Face
  4801,  4802,  4803,  4804,  4805,  4806,  4807,  4808,  4809,  4810,  4811,  4812,  4813,  4814,  4815,  4816
  4817,  4818,  4819,  4820,  4821,  4822,  4823,  4824,  4825,  4826,  4827,  4828,  4829,  4830,  4831,  4832
  4833,  4834,  4835,  4836,  4837,  4838,  4839,  4840,  4841,  4842,  4843,  4844,  4845,  4846,  4847,  4848
  4849,  4850,  4851,  4852,  4853,  4854,  4855,  4856,  4857,  4858,  4859,  4860,  4861,  4862,  4863,  4864
  4865,  4866,  4867,  4868,  4869,  4870,  4871,  4872,  4873,  4874,  4875,  4876,  4877,  4878,  4879,  4880
  4881,  4882,  4883,  4884,  4885,  4886,  4887,  4888,  4889,  4890,  4891,  4892,  4893,  4894,  4895,  4896
  4897,  4898,  4899,  4900,  4901,  4902,  4903,  4904,  4905,  4906,  4907,  4908,  4909,  4910,  4911,  4912
  4913,  4914,  4915,  4916,  4917,  4918,  4919,  4920,  4921,  4922,  4923,  4924,  4925,  4926,  4927,  4928
  4929,  4930,  4931,  4932,  4933,  4934,  4935,  4936,  4937,  4938,  4939,  4940,  4941,  4942,  4943,  4944
  4945,  4946,  4947,  4948,  4949,  4950,  4951,  4952,  4953,  4954,  4955,  4956,  4957,  4958,  4959,  4960
  4961,  4962,  4963,  4964,  4965,  4966,  4967,  4968,  4969,  4970,  4971,  4972,  4973,  4974,  4975,  4976
  4977,  4978,  4979,  4980,  4981,  4982,  4983,  4984,  4985,  4986,  4987,  4988,  4989,  4990,  4991,  4992
  4993,  4994,  4995,  4996,  4997,  4998,  4999,  5000,  5001,  5002,  5003,  5004,  5005,  5006,  5007,  5008
  5009,  5010,  5011,  5012,  5013,  5014,  5015,  5016,  5017,  5018,  5019,  5020,  5021,  5022,  5023,  5024
  5025,  5026,  5027,  5028,  5029,  5030,  5031,  5032,  5033,  5034,  5035,  5036,  5037,  5038,  5039,  5040
  5041,  5042,  5043,  5044,  5045,  5046,  5047,  5048,  5049,  5050,  5051,  5052,  5053,  5054,  5055,  5056
  5057,  5058,  5059,  5060,  5061,  5062,  5063,  5064,  5065,  5066,  5067,  5068,  5069,  5070,  5071,  5072
  5073,  5074,  5075,  5076,  5077,  5078,  5079,  5080,  5081,  5082,  5083,  5084,  5085,  5086,  5087,  5088
  5089,  5090,  5091,  5092,  5093,  5094,  5095,  5096,  5097,  5098,  5099,  5100,  5101,  5102,  5103,  5104
  5105,  5106,  5107,  5108,  5109,  5110,  5111,  5112,  5113,  5114,  5115,  5116,  5117,  5118,  5119,  5120
** ... 151 like lines cut
*Nset, nset=YZ_Face
    1,    2,    3,    4,    9,   10,   11,   13,   16,   17,   18,   20,   21,   22,   23,   29
   30,   31,   32,   33,   36,   37,   38,   39,   40,   41,   42,   43,   44,   45,   46,   47
   48,   49,   50,   51,   52,   53,   54,   55,   56,   57,   58,   59,   60,   61,   62,   63
   64,   65,   66,   67,   68,   69,   70,   71,   72,   73,   74,   75,   76,   77,   78,   79
   80,   81,   82,   83,   84,   85,   86,   87,   88,   89,   90,   91,   92,   93,   94,   95
   96,   97,   98,   99,  100,  101,  102,  103,  104,  105,  106,  107,  108,  109,  110,  111
  112,  113,  114,  115,  116,  117,  118,  119,  120,  121,  122,  123,  124,  125,  126,  127
  128,  129,  130,  131,  132,  133,  134,  135,  136,  137,  138,  139,  140,  141,  142,  143
  144,  145,  304,  305,  306,  307,  308,  309,  310,  311,  312,  313,  314,  315,  316,  329
  330,  331,  332,  333,  334,  335,  336,  337,  338,  339,  340,  341,  342,  343,  344,  345
  346,  347,  348,  349,  350,  351,  352,  353,  354,  355,  356,  357,  358,  359,  360,  361
  362,  363,  364,  365,  366,  367,  368,  369,  370,  371,  372,  373,  374,  375,  376,  377
  378,  379,  380,  381,  382,  383,  384,  385,  386,  387,  388,  389,  390,  391,  392,  393
  394,  395,  396,  397,  398,  399,  400,  401,  402,  403,  404,  405,  406,  407,  408,  409
  410,  411,  412,  413,  414,  415,  416,  417,  418,  419,  420,  421,  422,  423,  424,  425
  426,  427,  428,  441,  442,  443,  444,  445,  446,  447,  448,  449,  459,  460,  461,  462
  463,  464,  465,  466,  467,  492,  493,  494,  495,  496,  497,  498,  499,  500,  501,  502
  503,  504,  571,  572,  573,  574,  575,  576,  577,  578,  579,  580,  581,  582,  583,  584
  585,  586,  587,  588,  589,  590,  591,  592,  593,  594,  595,  596,  597,  598,  599,  600
  601,  602,  603,  604,  605,  606,  607,  608,  609,  610,  611,  612,  613,  614,  615,  616
** ... 167 like lines cut
*Elset, elset=YZ_Face
     1,     2,     3,     4,     5,     6,     7,     8,     9,    10,    11,    12,    13,    14,    15,    16
    17,    18,    19,    20,    21,    22,    23,    24,    25,    26,    27,    28,    29,    30,    31,    32
    33,    34,    35,    36,    37,    38,    39,    40,    41,    42,    43,    44,    45,    46,    47,    48
    49,    50,    51,    52,    53,    54,    55,    56,    57,    58,    59,    60,    61,    62,    63,    64
    65,    66,    67,    68,    69,    70,    71,    72,    73,    74,    75,    76,    77,    78,    79,    80
    81,    82,    83,    84,    85,    86,    87,    88,    89,    90,    91,    92,    93,    94,    95,    96
    97,    98,    99,   100,   101,   102,   103,   104,   105,   106,   107,   108,   109,   110,   111,   112
   113,   114,   115,   116,   117,   118,   119,   120,   121,   122,   123,   124,   125,   126,   127,   128
   129,   130,   131,   132,   133,   134,   135,   136,   137,   138,   139,   140,   141,   142,   143,   144
   145,   146,   147,   148,   149,   150,   151,   152,   153,   154,   155,   156,   157,   158,   159,   160
   161,   162,   163,   164,   165,   166,   167,   168,   169,   170,   171,   172,   173,   174,   175,   176
   177,   178,   179,   180,   181,   182,   183,   184,   185,   186,   187,   188,   189,   190,   191,   192
   193,   194,   195,   196,   197,   198,   199,   200,   201,   202,   203,   204,   205,   206,   207,   208
   209,   210,   211,   212,   213,   214,   215,   216,   217,   218,   219,   220,   221,   222,   223,   224
   225,   226,   227,   228,   229,   230,   231,   232,   233,   234,   235,   236,   237,   238,   239,   240
   241,   242,   243,   244,   245,   246,   247,   248,   249,   250,   251,   252,   253,   254,   255,   256
   257,   258,   259,   260,   261,   262,   263,   264,   265,   266,   267,   268,   269,   270,   271,   272
   273,   274,   275,   276,   277,   278,   279,   280,   281,   282,   283,   284,   285,   286,   287,   288
   289,   290,   291,   292,   293,   294,   295,   296,   297,   298,   299,   300,   301,   302,   303,   304
   305,   306,   307,   308,   309,   310,   311,   312,   313,   314,   315,   316,   317,   318,   319,   320
** ... 160 like lines cut
*Nset, nset=Soil_All_Geosta
     1,     2,     3,     4,     5,     6,     7,     8,     9,    10,    11,    12,    13,    14,    15,    16
    17,    18,    22,    23,    24,    25,    26,    27,    28,    29,    30,    31,    36,    37,    38,    39
    40,    41,    42,    43,    44,    45,    46,    47,    48,    49,    50,    51,    52,    53,    54,    55
    56,    57,    58,    59,    60,    61,    62,    63,    64,    65,    66,    67,    68,    69,    70,    71
    72,    73,    74,    75,    76,    77,    78,    79,    80,    81,    82,    83,    84,    85,    86,    87
    88,    89,    90,    91,    92,    93,    94,    95,    96,    97,    98,    99,   100,   101,   102,   103
   104,   105,   106,   107,   108,   109,   110,   111,   112,   113,   114,   115,   116,   117,   118,   119
   120,   121,   122,   123,   124,   125,   126,   127,   128,   129,   130,   131,   132,   133,   134,   135
   136,   137,   138,   139,   140,   141,   142,   143,   144,   145,   146,   147,   148,   149,   150,   151
   152,   153,   154,   155,   156,   157,   158,   159,   160,   161,   162,   163,   164,   165,   166,   167
   168,   169,   170,   171,   172,   173,   174,   175,   176,   177,   178,   179,   180,   181,   182,   183
   184,   185,   186,   187,   188,   189,   190,   191,   192,   193,   194,   195,   196,   197,   198,   199
   200,   201,   202,   203,   204,   205,   206,   207,   208,   209,   210,   211,   212,   213,   214,   215
   216,   217,   218,   219,   220,   221,   222,   223,   224,   225,   226,   227,   228,   229,   230,   231
   232,   233,   234,   235,   236,   237,   238,   239,   240,   241,   242,   243,   244,   245,   246,   247
   248,   249,   250,   251,   252,   253,   254,   255,   256,   257,   258,   259,   260,   261,   262,   263
   264,   265,   266,   267,   268,   269,   270,   271,   272,   273,   274,   275,   276,   277,   278,   279
   280,   281,   282,   283,   284,   285,   286,   287,   288,   289,   290,   291,   292,   293,   294,   295
   296,   297,   298,   299,   300,   301,   302,   303,   304,   305,   306,   307,   308,   309,   310,   311
   312,   313,   314,   315,   316,   317,   318,   319,   320,   321,   322,   323,   324,   325,   326,   327
** ... 1865 like lines cut
*Elset, elset=Soil_All_Geosta
     1,     2,     3,     4,     5,     6,     7,     8,     9,    10,    11,    12,    13,    14,    15,    16
    17,    18,    19,    20,    21,    22,    23,    24,    25,    26,    27,    28,    29,    30,    31,    32
    33,    34,    35,    36,    37,    38,    39,    40,    41,    42,    43,    44,    45,    46,    47,    48
    49,    50,    51,    52,    53,    54,    55,    56,    57,    58,    59,    60,    61,    62,    63,    64
    65,    66,    67,    68,    69,    70,    71,    72,    73,    74,    75,    76,    77,    78,    79,    80
    81,    82,    83,    84,    85,    86,    87,    88,    89,    90,    91,    92,    93,    94,    95,    96
    97,    98,    99,   100,   101,   102,   103,   104,   105,   106,   107,   108,   109,   110,   111,   112
   113,   114,   115,   116,   117,   118,   119,   120,   121,   122,   123,   124,   125,   126,   127,   128
   129,   130,   131,   132,   133,   134,   135,   136,   137,   138,   139,   140,   141,   142,   143,   144
   145,   146,   147,   148,   149,   150,   151,   152,   153,   154,   155,   156,   157,   158,   159,   160
   161,   162,   163,   164,   165,   166,   167,   168,   169,   170,   171,   172,   173,   174,   175,   176
   177,   178,   179,   180,   181,   182,   183,   184,   185,   186,   187,   188,   189,   190,   191,   192
   193,   194,   195,   196,   197,   198,   199,   200,   201,   202,   203,   204,   205,   206,   207,   208
   209,   210,   211,   212,   213,   214,   215,   216,   217,   218,   219,   220,   221,   222,   223,   224
   225,   226,   227,   228,   229,   230,   231,   232,   233,   234,   235,   236,   237,   238,   239,   240
   241,   242,   243,   244,   245,   246,   247,   248,   249,   250,   251,   252,   253,   254,   255,   256
   257,   258,   259,   260,   261,   262,   263,   264,   265,   266,   267,   268,   269,   270,   271,   272
   273,   274,   275,   276,   277,   278,   279,   280,   281,   282,   283,   284,   285,   286,   287,   288
   289,   290,   291,   292,   293,   294,   295,   296,   297,   298,   299,   300,   301,   302,   303,   304
   305,   306,   307,   308,   309,   310,   311,   312,   313,   314,   315,   316,   317,   318,   319,   320
** ... 1668 like lines cut
*Nset, nset=Soil_Void
    14,    15,    16,    17,    18,    19,    20,    21,    23,    25,    32,    33,    34,    35,   508,   509
   510,   511,   512,   513,   514,   547,   548,   549,   550,   551,   552,   553,   554,   555,   556,   557
   558,   559,   560,   561,   562,   563,   564,   565,   566,   567,   568,   569,   570,   603,   604,   605
   606,   607,   608,   609,   645,   646,   647,   648,   649,   650,   651,   652,   653,   654,   655,   656
   657,   658,   659,   660,   661,   662,   663,   664,   665,   666,   667,   668,   669,   670,   671,   672
   673,   674,   675,   676,   677,   678,   679,   680,   681,   682,   683,   684,   685,   686,   687,   688
   689,   690,   691,   692,   693,   694,   695,   696,   697,   698,   699,   700,   701,   702,   703,   704
   705,   706,   707,   708,   709,   710,   711,   712,   713,   714,   715,   716,   717,   718,   719,   720
   721,   722,   723,   724,   733,   734,   735,   736,   737,   738,   739,   740,   744,   745,   746,   747
   748,   749,   750,   751,   752,   753,   754,   755,   779,   780,   781,   782,   783,   784,   785,   786
   909,   910,   911,   912,   913,   914,   915,   916,   917,   918,   919,   920,   921,   922,   923,   924
   925,   926,   927,   928,   929,   930,   931,   932,   933,   934,   935,   936,   937,   938,   939,   940
   941,   942,   943,   944,   945,   946,   947,   948,   949,   950,   951,   952,   953,   954,   955,   956
   957,   958,   959,   960,   961,   962,   963,   964,   965,   966,   967,   968,   969,   970,   971,   972
   973,   974,   975,   976,   977,   978,   979,   980,   981,   982,   983,   984,   985,   986,  6485,  6486
  6487,  6488,  6489,  6490,  6491,  6492,  6493,  6494,  6495,  6496,  6497,  6498,  6499,  6500,  6501,  6502
  6503,  6504,  6505,  6506,  6507,  6508,  6509,  6510,  6511,  6512,  6513,  6514,  6515,  6516,  6517,  6518
  6519,  6520,  6521,  6522,  6523,  6524,  6525,  6526,  6527,  6528,  6529,  6530,  6531,  6532,  6533,  6534
  6535,  6536,  6537,  6538,  6539,  6540,  6541,  6542,  6543,  6544,  6545,  6546,  6547,  6548,  6549,  6550
  6551,  6552,  6553,  6554,  6555,  6556,  6557,  6558,  6559,  6560,  6561,  6562,  6563,  6564,  6565,  6566
** ... 172 like lines cut
*Elset, elset=Soil_Void
 23487, 23488, 23489, 23490, 23491, 23492, 23493, 23494, 23495, 23496, 23497, 23498, 23499, 23500, 23501, 23502
 23503, 23504, 23505, 23506, 23507, 23508, 23509, 23510, 23511, 23512, 23513, 23514, 23515, 23516, 23517, 23518
 23519, 23520, 23521, 23522, 23523, 23524, 23525, 23526, 23527, 23528, 23529, 23530, 23531, 23532, 23533, 23534
 23535, 23536, 23537, 23538, 23539, 23540, 23541, 23542, 23543, 23544, 23545, 23546, 23547, 23548, 23549, 23550
 23551, 23552, 23553, 23554, 23555, 23556, 23557, 23558, 23559, 23560, 23561, 23562, 23563, 23564, 23565, 23566
 23567, 23568, 23569, 23570, 23571, 23572, 23573, 23574, 23575, 23576, 23577, 23578, 23579, 23580, 23581, 23582
 23583, 23584, 23585, 23586, 23587, 23588, 23589, 23590, 23591, 23592, 23593, 23594, 23595, 23596, 23597, 23598
 23599, 23600, 23601, 23602, 23603, 23604, 23605, 23606, 23607, 23608, 23609, 23610, 23611, 23612, 23613, 23614
 23615, 23616, 23617, 23618, 23619, 23620, 23621, 23622, 23623, 23624, 23625, 23626, 23627, 23628, 23629, 23630
 23631, 23632, 23633, 23634, 23635, 23636, 23637, 23638, 23639, 23640, 23641, 23642, 23643, 23644, 23645, 23646
 23647, 23648, 23649, 23650, 23651, 23652, 23653, 23654, 23655, 23656, 23657, 23658, 23659, 23660, 23661, 23662
 23663, 23664, 23665, 23666, 23667, 23668, 23669, 23670, 23671, 23672, 23673, 23674, 23675, 23676, 23677, 23678
 23679, 23680, 23681, 23682, 23683, 23684, 23685, 23686, 23687, 23688, 23689, 23690, 23691, 23692, 23693, 23694
 23695, 23696, 23697, 23698, 23699, 23700, 23701, 23702, 23703, 23704, 23705, 23706, 23707, 23708, 23709, 23710
 23711, 23712, 23713, 23714, 23715, 23716, 23717, 23718, 23719, 23720, 23721, 23722, 23723, 23724, 23725, 23726
 23727, 23728, 23729, 23730, 23731, 23732, 23733, 23734, 23735, 23736, 23737, 23738, 23739, 23740, 23741, 23742
 23743, 23744, 23745, 23746, 23747, 23748, 23749, 23750, 23751, 23752, 23753, 23754, 23755, 23756, 23757, 23758
 23759, 23760, 23761, 23762, 23763, 23764, 23765, 23766, 23767, 23768, 23769, 23770, 23771, 23772, 23773, 23774
 23775, 23776, 23777, 23778, 23779, 23780, 23781, 23782, 23783, 23784, 23785, 23786, 23787, 23788, 23789, 23790
 23791, 23792, 23793, 23794, 23795, 23796, 23797, 23798, 23799, 23800, 23801, 23802, 23803, 23804, 23805, 23806
** ... 132 like lines cut
*Nset, nset=Soil_down_Layer
     1,     2,     3,     4,     5,     6,     7,     8,     9,    10,    11,    12,    13,    22,    24,    26
    27,    28,    29,    30,    31,    36,    37,    38,    39,    40,    41,    42,    43,    44,    45,    46
    47,    48,    49,    50,    51,    52,    53,    54,    55,    56,    57,    58,    59,    60,    61,    62
    63,    64,    65,    66,    67,    68,    69,    70,    71,    72,    73,    74,    75,    76,    77,    78
    79,    80,    81,    82,    83,    84,    85,    86,    87,    88,    89,    90,    91,    92,    93,    94
    95,    96,    97,    98,    99,   100,   101,   102,   103,   104,   105,   106,   107,   108,   109,   110
   111,   112,   113,   114,   115,   116,   117,   118,   119,   120,   121,   122,   123,   124,   125,   126
   127,   128,   129,   130,   131,   132,   133,   134,   135,   136,   137,   138,   139,   140,   141,   142
   143,   144,   145,   146,   147,   148,   149,   150,   151,   152,   153,   154,   155,   156,   157,   158
   159,   160,   161,   162,   163,   164,   165,   166,   167,   168,   169,   170,   171,   172,   173,   174
   175,   176,   177,   178,   179,   180,   181,   182,   183,   184,   185,   186,   187,   188,   189,   190
   191,   192,   193,   194,   195,   196,   197,   198,   199,   200,   201,   202,   203,   204,   205,   206
   207,   208,   209,   210,   211,   212,   213,   214,   215,   216,   217,   218,   219,   220,   221,   222
   223,   224,   225,   226,   227,   228,   229,   230,   231,   232,   233,   234,   235,   236,   237,   238
   239,   240,   241,   242,   243,   244,   245,   246,   247,   248,   249,   250,   251,   252,   253,   254
   255,   256,   257,   258,   259,   260,   261,   262,   263,   264,   265,   266,   267,   268,   269,   270
   271,   272,   273,   274,   275,   276,   277,   278,   279,   280,   281,   282,   283,   284,   285,   286
   287,   288,   289,   290,   291,   292,   293,   294,   295,   296,   297,   298,   299,   300,   301,   302
   303,   304,   305,   306,   307,   308,   309,   310,   311,   312,   313,   314,   315,   316,   317,   318
   319,   320,   321,   322,   323,   324,   325,   326,   327,   328,   329,   330,   331,   332,   333,   334
** ... 1416 like lines cut
*Elset, elset=Soil_down_Layer
     1,     2,     3,     4,     5,     6,     7,     8,     9,    10,    11,    12,    13,    14,    15,    16
    17,    18,    19,    20,    21,    22,    23,    24,    25,    26,    27,    28,    29,    30,    31,    32
    33,    34,    35,    36,    37,    38,    39,    40,    41,    42,    43,    44,    45,    46,    47,    48
    49,    50,    51,    52,    53,    54,    55,    56,    57,    58,    59,    60,    61,    62,    63,    64
    65,    66,    67,    68,    69,    70,    71,    72,    73,    74,    75,    76,    77,    78,    79,    80
    81,    82,    83,    84,    85,    86,    87,    88,    89,    90,    91,    92,    93,    94,    95,    96
    97,    98,    99,   100,   101,   102,   103,   104,   105,   106,   107,   108,   109,   110,   111,   112
   113,   114,   115,   116,   117,   118,   119,   120,   121,   122,   123,   124,   125,   126,   127,   128
   129,   130,   131,   132,   133,   134,   135,   136,   137,   138,   139,   140,   141,   142,   143,   144
   145,   146,   147,   148,   149,   150,   151,   152,   153,   154,   155,   156,   157,   158,   159,   160
   161,   162,   163,   164,   165,   166,   167,   168,   169,   170,   171,   172,   173,   174,   175,   176
   177,   178,   179,   180,   181,   182,   183,   184,   185,   186,   187,   188,   189,   190,   191,   192
   193,   194,   195,   196,   197,   198,   199,   200,   201,   202,   203,   204,   205,   206,   207,   208
   209,   210,   211,   212,   213,   214,   215,   216,   217,   218,   219,   220,   221,   222,   223,   224
   225,   226,   227,   228,   229,   230,   231,   232,   233,   234,   235,   236,   237,   238,   239,   240
   241,   242,   243,   244,   245,   246,   247,   248,   249,   250,   251,   252,   253,   254,   255,   256
   257,   258,   259,   260,   261,   262,   263,   264,   265,   266,   267,   268,   269,   270,   271,   272
   273,   274,   275,   276,   277,   278,   279,   280,   281,   282,   283,   284,   285,   286,   287,   288
   289,   290,   291,   292,   293,   294,   295,   296,   297,   298,   299,   300,   301,   302,   303,   304
   305,   306,   307,   308,   309,   310,   311,   312,   313,   314,   315,   316,   317,   318,   319,   320
** ... 1261 like lines cut
*Nset, nset=Soil_Upper_Layer
     1,     2,     5,     6,     9,    14,    15,    16,    17,    18,    22,    23,    24,    25,    36,    37
    38,    39,    40,    41,   146,   147,   148,   149,   150,   151,   152,   153,   154,   155,   156,   157
   158,   159,   160,   161,   162,   163,   164,   165,   166,   167,   168,   169,   194,   195,   196,   197
   198,   199,   304,   305,   306,   307,   308,   309,   310,   311,   312,   313,   314,   315,   316,   317
   318,   319,   320,   321,   322,   323,   324,   325,   326,   327,   328,   505,   506,   507,   508,   509
   510,   511,   512,   513,   514,   515,   516,   517,   518,   519,   520,   521,   522,   523,   524,   525
   526,   527,   528,   529,   530,   531,   532,   533,   534,   535,   536,   537,   538,   539,   540,   541
   542,   543,   544,   545,   546,   547,   548,   549,   550,   551,   552,   553,   554,   555,   556,   557
   558,   559,   560,   561,   562,   563,   564,   565,   566,   567,   568,   569,   570,   571,   572,   573
   574,   575,   576,   577,   578,   579,   580,   581,   582,   583,   584,   585,   586,   587,   588,   589
   590,   591,   592,   593,   594,   595,   596,   597,   598,   599,   600,   601,   602,   603,   604,   605
   606,   607,   608,   609,   610,   611,   612,   613,   614,   615,   616,   617,   618,   619,   620,   621
   622,   623,   624,   625,   626,   627,   628,   629,   630,   631,   632,   633,   634,   635,   636,   637
   638,   639,   640,   641,   642,   643,   644,   645,   646,   647,   648,   649,   650,   651,   652,   653
   654,   655,   656,   657,   658,   659,   660,   661,   662,   663,   664,   665,   666,   667,   668,   669
   725,   726,   727,   728,   729,   730,   731,   732,   733,   734,   735,   736,   737,   738,   739,   740
   741,   742,   743,   744,   745,   746,   747,   748,   749,   750,   751,   752,   753,   754,   755,   756
   757,   758,   759,   760,   761,   762,   763,   764,   765,   766,   767,   768,   769,   770,   771,   772
   773,   774,   775,   776,   777,   778,   779,   780,   781,   782,   783,   784,   785,   786,  1675,  1676
  1677,  1678,  1679,  1680,  1681,  1682,  1683,  1684,  1685,  1686,  1687,  1688,  1689,  1690,  1691,  1692
** ... 453 like lines cut
*Elset, elset=Soil_Upper_Layer
 17451, 17452, 17453, 17454, 17455, 17456, 17457, 17458, 17459, 17460, 17461, 17462, 17463, 17464, 17465, 17466
 17467, 17468, 17469, 17470, 17471, 17472, 17473, 17474, 17475, 17476, 17477, 17478, 17479, 17480, 17481, 17482
 17483, 17484, 17485, 17486, 17487, 17488, 17489, 17490, 17491, 17492, 17493, 17494, 17495, 17496, 17497, 17498
 17499, 17500, 17501, 17502, 17503, 17504, 17505, 17506, 17507, 17508, 17509, 17510, 17511, 17512, 17513, 17514
 17515, 17516, 17517, 17518, 17519, 17520, 17521, 17522, 17523, 17524, 17525, 17526, 17527, 17528, 17529, 17530
 17531, 17532, 17533, 17534, 17535, 17536, 17537, 17538, 17539, 17540, 17541, 17542, 17543, 17544, 17545, 17546
 17547, 17548, 17549, 17550, 17551, 17552, 17553, 17554, 17555, 17556, 17557, 17558, 17559, 17560, 17561, 17562
 17563, 17564, 17565, 17566, 17567, 17568, 17569, 17570, 17571, 17572, 17573, 17574, 17575, 17576, 17577, 17578
 17579, 17580, 17581, 17582, 17583, 17584, 17585, 17586, 17587, 17588, 17589, 17590, 17591, 17592, 17593, 17594
 17595, 17596, 17597, 17598, 17599, 17600, 17601, 17602, 17603, 17604, 17605, 17606, 17607, 17608, 17609, 17610
 17611, 17612, 17613, 17614, 17615, 17616, 17617, 17618, 17619, 17620, 17621, 17622, 17623, 17624, 17625, 17626
 17627, 17628, 17629, 17630, 17631, 17632, 17633, 17634, 17635, 17636, 17637, 17638, 17639, 17640, 17641, 17642
 17643, 17644, 17645, 17646, 17647, 17648, 17649, 17650, 17651, 17652, 17653, 17654, 17655, 17656, 17657, 17658
 17659, 17660, 17661, 17662, 17663, 17664, 17665, 17666, 17667, 17668, 17669, 17670, 17671, 17672, 17673, 17674
 17675, 17676, 17677, 17678, 17679, 17680, 17681, 17682, 17683, 17684, 17685, 17686, 17687, 17688, 17689, 17690
 17691, 17692, 17693, 17694, 17695, 17696, 17697, 17698, 17699, 17700, 17701, 17702, 17703, 17704, 17705, 17706
 17707, 17708, 17709, 17710, 17711, 17712, 17713, 17714, 17715, 17716, 17717, 17718, 17719, 17720, 17721, 17722
 17723, 17724, 17725, 17726, 17727, 17728, 17729, 17730, 17731, 17732, 17733, 17734, 17735, 17736, 17737, 17738
 17739, 17740, 17741, 17742, 17743, 17744, 17745, 17746, 17747, 17748, 17749, 17750, 17751, 17752, 17753, 17754
 17755, 17756, 17757, 17758, 17759, 17760, 17761, 17762, 17763, 17764, 17765, 17766, 17767, 17768, 17769, 17770
** ... 387 like lines cut
*Nset, nset=HorizintalKanten1
   5,   8,  14,  24,  25,  26,  27,  28,  34,  35, 768, 769, 770, 771, 772, 773
 774, 775, 779, 780, 781, 782, 783, 784, 785, 786, 787, 788, 789, 790, 791, 792
 793, 794, 804, 805, 806, 807, 808, 809, 810, 811, 959, 960, 961, 962, 963, 964
 965, 966
*Elset, elset=HorizintalKanten1
 24794, 24795, 24796, 24797, 24798, 24799, 24800, 24801, 24802, 24821, 24822, 24823, 24824, 24825, 24826, 24827
 24828, 24829, 24830, 24831, 24832, 24833, 24834, 24835, 24836, 24837, 24838, 24911, 24912, 24913, 24914, 24915
 24916, 24917, 24918, 24919, 27798, 27799, 27804, 27813, 27814, 27828, 27830, 27840, 27842, 27843, 27852, 27855
 27856, 27857, 27858, 27860, 27862, 27865, 28628, 28629, 28630, 28631, 28632, 28633, 28634, 28635, 28636, 28682
 28683, 28684, 28685, 28686, 28687, 28688, 28689, 28690
*Nset, nset=HorizintalKanten3
   2,   3,  17,  22,  23,  29,  30,  31,  32,  33, 725, 726, 727, 728, 729, 730
 731, 732, 733, 734, 735, 736, 737, 738, 739, 740, 857, 858, 859, 860, 861, 862
 863, 864, 874, 875, 876, 877, 878, 879, 880, 881, 915, 916, 917, 918, 919, 920
 921, 922
*Elset, elset=HorizintalKanten3
 24362, 24363, 24364, 24365, 24366, 24367, 24368, 24369, 24370, 24389, 24390, 24391, 24392, 24393, 24394, 24395
 24396, 24397, 25910, 25911, 25912, 25913, 25914, 25915, 25916, 25917, 25918, 25991, 25992, 25993, 25994, 25995
 25996, 25997, 25998, 25999, 26910, 26911, 26916, 26925, 26926, 26940, 26942, 26952, 26954, 26955, 26964, 26967
 26968, 26969, 26970, 26972, 26974, 26977, 27872, 27873, 27874, 27875, 27876, 27877, 27878, 27879, 27880, 27926
 27927, 27928, 27929, 27930, 27931, 27932, 27933, 27934
*Nset, nset=CoreKanten
   1,   4,   6,   7,   9,  10,  15,  16,  18,  19,  20,  21,  59,  60,  61,  62
  63,  64,  65,  66,  67,  68,  69,  70,  71,  72,  73,  74,  75,  76,  77,  78
  79,  80,  81,  82,  83,  84,  85,  86,  87,  88,  89,  90,  91,  92,  93,  94
  95,  96,  97,  98,  99, 100, 101, 102, 103, 104, 105, 106, 107, 108, 109, 110
 111, 112, 113, 114, 115, 116, 117, 118, 119, 120, 121, 122, 123, 124, 125, 126
 127, 128, 129, 130, 131, 132, 133, 134, 135, 136, 137, 138, 139, 140, 141, 142
 143, 144, 145, 158, 159, 160, 161, 162, 163, 164, 165, 166, 167, 168, 169, 170
 171, 172, 173, 174, 175, 176, 177, 178, 179, 180, 181, 200, 201, 202, 203, 204
 205, 206, 207, 208, 209, 210, 211, 212, 213, 214, 215, 216, 217, 218, 219, 220
 221, 222, 223, 224, 225, 226, 227, 228, 229, 230, 231, 232, 233, 234, 235, 236
 237, 238, 239, 240, 241, 242, 243, 244, 245, 246, 247, 248, 249, 250, 251, 252
 253, 254, 255, 256, 257, 258, 259, 260, 261, 262, 263, 264, 265, 266, 267, 268
 269, 270, 271, 272, 273, 274, 275, 276, 277, 278, 279, 280, 281, 282, 283, 284
 285, 286, 304, 305, 306, 307, 308, 309, 310, 311, 312, 313, 314, 315, 316, 317
 318, 319, 320, 321, 322, 323, 324, 325, 326, 327, 328, 329, 330, 331, 332, 333
 334, 335, 336, 337, 338, 339, 340, 341, 342, 343, 344, 345, 346, 347, 348, 349
 350, 351, 352, 353, 354, 355, 356, 357, 358, 359, 360, 361, 362, 363, 364, 365
 366, 367, 368, 369, 370, 371, 372, 373, 374, 375, 376, 377, 378, 379, 380, 381
 382, 383, 384, 385, 386, 387, 388, 389, 390, 391, 392, 393, 394, 395, 396, 397
 398, 399, 400, 401, 402, 403, 404, 405, 406, 407, 408, 409, 410, 411, 412, 413
** ... 14 like lines cut
*Elset, elset=CoreKanten
     8,     9,    14,    15,    16,    18,    19,    20,    21,    22,    24,    25,    26,    27,    28,    29
    30,    31,    32,    33,    34,    35,    36,    37,    38,    39,    40,    41,    42,    43,    44,    45
    46,    47,    48,    49,    50,    51,    52,    53,    54,    55,    56,    57,    58,    59,    60,    61
    62,    63,    64,    69,    70,    72,    73,    74,    76,    78,    80,    81,    82,    83,    84,    86
    87,    89,    91,    94,    96,    98,   102,   104,   106,   108,   112,   120,   123,   127,   136,   138
   143,   150,   151,   160,   194,   195,   381,   382,   418,   419,   818,   819,  1218,  1219,  1618,  1619
  2018,  2019,  2418,  2419,  2818,  2819,  3218,  3219,  3618,  3619,  4018,  4019,  4418,  4419,  4808,  4809
  4814,  4815,  4816,  4818,  4819,  4820,  4821,  4822,  4824,  4825,  4826,  4827,  4828,  4829,  4830,  4831
  4832,  4833,  4834,  4835,  4836,  4837,  4838,  4839,  4840,  4841,  4842,  4843,  4844,  4845,  4846,  4847
  4848,  4849,  4850,  4851,  4852,  4853,  4854,  4855,  4856,  4857,  4858,  4859,  4860,  4861,  4862,  4863
  4864,  4869,  4870,  4872,  4873,  4874,  4876,  4878,  4880,  4881,  4882,  4883,  4884,  4886,  4887,  4889
  4891,  4894,  4896,  4898,  4902,  4904,  4906,  4908,  4912,  4920,  4923,  4927,  4936,  4938,  4943,  4950
  4951,  4960,  4994,  4995,  5181,  5182,  5201,  5203,  5204,  5205,  5206,  5207,  5208,  5211,  5213,  5214
  5215,  5218,  5220,  5221,  5223,  5224,  5225,  5232,  5234,  5236,  5238,  5239,  5241,  5243,  5244,  5246
  5261,  5264,  5278,  5286,  5308,  5312,  5316,  5317,  5319,  5320,  5322,  5339,  5348,  5349,  5464,  5473
  5474,  5589,  5598,  5599,  5714,  5723,  5724,  5839,  5848,  5849,  5964,  5973,  5974,  6089,  6098,  6099
  6214,  6223,  6224,  6339,  6348,  6349,  6464,  6473,  6474,  6589,  6598,  6599,  6714,  6723,  6724,  6839
  6848,  6849,  6964,  6973,  6974,  7089,  7098,  7099,  7214,  7223,  7224,  7339,  7348,  7349,  7464,  7473
  7474,  7589,  7598,  7599,  7714,  7723,  7724,  7839,  7848,  7849,  7964,  7973,  7974,  8089,  8098,  8099
  8214,  8223,  8224,  8339,  8348,  8349,  8464,  8473,  8474,  8589,  8598,  8599,  8714,  8723,  8724,  8839
** ... 40 like lines cut
*Nset, nset=CoreKanten2
   2,   3,   5,   8,  14,  17,  42,  43,  44,  45,  46,  47,  48,  49,  50,  51
  52, 293, 294, 295, 296, 297, 298, 299, 300, 301, 302, 303, 505, 506, 507, 610
 611, 612
*Elset, elset=CoreKanten2
     3,     5,    12,   351,   353,   364,   366,   367,   369,   370,   371,   372,  4803,  4805,  4812,  5151
  5153,  5164,  5166,  5167,  5169,  5170,  5171,  5172, 17457, 17572, 17575, 17585, 19221, 19336, 19339, 19349
 24370, 24379, 24388, 24397, 24802, 24811, 24820, 24829, 26924, 26925, 26926, 26927, 26928, 26929, 26930, 26931
 26932, 26933, 26934, 26938, 27812, 27813, 27814, 27815, 27816, 27817, 27818, 27819, 27820, 27821, 27822, 27826
*Nset, nset=OuterKanten
   1,   2,   3,   4,   5,   6,   7,   8,  11,  12,  14,  15,  16,  17,  19,  20
  22,  23,  24,  25,  26,  27,  28,  29,  30,  31,  32,  33,  34,  35, 146, 147
 148, 149, 150, 151, 152, 153, 154, 155, 156, 157, 158, 159, 160, 161, 162, 163
 164, 165, 166, 167, 168, 169, 170, 171, 172, 173, 174, 175, 176, 177, 178, 179
 180, 181, 182, 183, 184, 185, 186, 187, 188, 189, 190, 191, 192, 193, 468, 469
 470, 471, 472, 473, 474, 475, 476, 477, 478, 479, 547, 548, 549, 550, 551, 552
 553, 554, 555, 556, 557, 558, 559, 560, 561, 562, 563, 564, 565, 566, 567, 568
 569, 570, 688, 689, 690, 691, 692, 693, 694, 695, 696, 697, 698, 699, 744, 745
 746, 747, 748, 749, 750, 751, 752, 753, 754, 755, 756, 757, 758, 759, 760, 761
 762, 763, 764, 765, 766, 767, 821, 822, 823, 824, 825, 826, 827, 828, 829, 830
 831, 832, 833, 834, 835, 836, 837, 838, 839, 840, 841, 842, 843, 844, 845, 846
 847, 848, 849, 850, 851, 852, 853, 854, 855, 856, 929, 930, 931, 932, 933, 934
 935, 936, 937, 938, 939, 940, 941, 942, 943, 944, 945, 946, 947, 948, 949, 950
 951, 952
*Elset, elset=OuterKanten
     3,    12,    18,    19,   403,   412,   418,   419,   803,   812,   818,   819,  1203,  1212,  1218,  1219
  1603,  1612,  1618,  1619,  2003,  2012,  2018,  2019,  2403,  2412,  2418,  2419,  2803,  2812,  2818,  2819
  3203,  3212,  3218,  3219,  3603,  3612,  3618,  3619,  4003,  4012,  4018,  4019,  4403,  4412,  4418,  4419
  4803,  4812,  4818,  4819,  5223,  5224,  5225,  5232,  5278,  5286,  5308,  5312,  5316,  5317,  5319,  5320
  5322, 16098, 16099, 16100, 16107, 16153, 16161, 16183, 16187, 16191, 16192, 16194, 16195, 16197, 16223, 16224
 16225, 16232, 16278, 16286, 16308, 16312, 16316, 16317, 16319, 16320, 16322, 17348, 17349, 17350, 17357, 17403
 17411, 17433, 17437, 17441, 17442, 17444, 17445, 17447, 17457, 17460, 17467, 17585, 17604, 17607, 17614, 17732
 17751, 17754, 17761, 17879, 17898, 17901, 17908, 18026, 18045, 18048, 18055, 18173, 18192, 18195, 18202, 18320
 18339, 18342, 18349, 18467, 18486, 18489, 18496, 18614, 18633, 18636, 18643, 18761, 18780, 18783, 18790, 18908
 18927, 18930, 18937, 19055, 19074, 19077, 19084, 19202, 19221, 19224, 19231, 19349, 19384, 19385, 19386, 19393
 19439, 19447, 19469, 19473, 19477, 19478, 19480, 19481, 19483, 23384, 23385, 23386, 23393, 23439, 23447, 23469
 23473, 23477, 23478, 23480, 23481, 23483, 23509, 23510, 23511, 23518, 23564, 23572, 23594, 23598, 23602, 23603
 23605, 23606, 23608, 24259, 24260, 24261, 24268, 24314, 24322, 24344, 24348, 24352, 24353, 24355, 24356, 24358
 24362, 24370, 24389, 24397, 24398, 24406, 24425, 24433, 24434, 24442, 24461, 24469, 24470, 24478, 24497, 24505
 24506, 24514, 24533, 24541, 24542, 24550, 24569, 24577, 24578, 24586, 24605, 24613, 24614, 24622, 24641, 24649
 24650, 24658, 24677, 24685, 24686, 24694, 24713, 24721, 24722, 24730, 24749, 24757, 24758, 24766, 24785, 24793
 24794, 24802, 24821, 24829, 24830, 24838, 24911, 24919, 24920, 24928, 25001, 25009, 25010, 25018, 25091, 25099
 25100, 25108, 25181, 25189, 25190, 25198, 25271, 25279, 25280, 25288, 25361, 25369, 25370, 25378, 25451, 25459
 25460, 25468, 25541, 25549, 25550, 25558, 25631, 25639, 25640, 25648, 25721, 25729, 25730, 25738, 25811, 25819
 25820, 25828, 25901, 25909, 25910, 25918, 25991, 25999, 26000, 26006, 26063, 26069, 26070, 26076, 26133, 26139
** ... 13 like lines cut
*Nset, nset=VoidKanten
  14,  15,  16,  17,  18,  19,  20,  21,  23,  25,  32,  33,  34,  35, 670, 671
 672, 673, 674, 675, 676, 677, 678, 679, 680, 681, 682, 683, 684, 685, 686, 687
 909, 910, 911, 912, 913, 914, 923, 924, 925, 926, 927, 928, 953, 954, 955, 956
 957, 958, 967, 968, 969, 970, 971, 972
*Elset, elset=VoidKanten
 23500, 23509, 23510, 23625, 23634, 23635, 23750, 23759, 23760, 23875, 23884, 23885, 24000, 24009, 24010, 24125
 24134, 24135, 24250, 24259, 24260, 27872, 27880, 27881, 27889, 27890, 27898, 27899, 27907, 27908, 27916, 27917
 27925, 27926, 27934, 28628, 28636, 28637, 28645, 28646, 28654, 28655, 28663, 28664, 28672, 28673, 28681, 28682
 28690, 28691, 28698, 28699, 28706, 28707, 28714, 28715, 28722, 28723, 28730, 28731, 28738, 28739, 28746, 29363
 29370, 29371, 29378, 29379, 29386, 29387, 29394, 29395, 29402, 29403, 29410, 29411, 29418
*Nset, nset=HorizintalKanten_mini1
   5,   6,   7,   8,  12,  14,  15,  19,  27,  35, 194, 195, 196, 197, 198, 199
 287, 288, 289, 290, 291, 292, 508, 509, 510, 511, 512, 513, 514, 897, 898, 899
 900, 901, 902, 973, 974, 975, 976, 977, 978, 979
*Elset, elset=HorizintalKanten_mini1
  4803,  4807,  4812,  4818,  4819,  4913,  4914,  4948,  4954,  4974,  5048,  5084,  5136,  5152, 17451, 17457
 17458, 17459, 17460, 17466, 17467, 17510, 17526, 17529, 17546, 17561, 17562, 17582, 17585, 26840, 26841, 26842
 26843, 26844, 26845, 26846, 26903, 26904, 26905, 26906, 26907, 26908, 26909, 28691, 28692, 28693, 28694, 28695
 28696, 28697, 28698, 28739, 28740, 28741, 28742, 28743, 28744, 28745, 28746
*Nset, nset=HorizintalKanten_mini3
   1,   2,   3,   4,  11,  16,  17,  20,  31,  32,  36,  37,  38,  39,  40,  41
  53,  54,  55,  56,  57,  58, 603, 604, 605, 606, 607, 608, 609, 891, 892, 893
 894, 895, 896, 980, 981, 982, 983, 984, 985, 986
*Elset, elset=HorizintalKanten_mini3
     3,     7,    12,    18,    19,   113,   114,   148,   154,   174,   248,   284,   336,   352, 19215, 19221
 19222, 19223, 19224, 19230, 19231, 19274, 19290, 19293, 19310, 19325, 19326, 19346, 19349, 26000, 26001, 26002
 26003, 26004, 26005, 26006, 26063, 26064, 26065, 26066, 26067, 26068, 26069, 29363, 29364, 29365, 29366, 29367
 29368, 29369, 29370, 29411, 29412, 29413, 29414, 29415, 29416, 29417, 29418
*Nset, nset=UntenVertikal
   3,   4,   7,   8,  10,  11,  12,  13,  26,  27,  28,  29,  30,  31, 441, 442
 443, 444, 445, 446, 447, 448, 449, 450, 451, 452, 453, 454, 455, 456, 457, 458
 459, 460, 461, 462, 463, 464, 465, 466, 467, 795, 796, 797, 798, 799, 800, 801
 802, 803, 812, 813, 814, 815, 816, 817, 818, 819, 820, 865, 866, 867, 868, 869
 870, 871, 872, 873, 882, 883, 884, 885, 886, 887, 888, 889, 890
*Elset, elset=UntenVertikal
 16214, 16223, 16224, 16339, 16348, 16349, 16464, 16473, 16474, 16589, 16598, 16599, 16714, 16723, 16724, 16839
 16848, 16849, 16964, 16973, 16974, 17089, 17098, 17099, 17214, 17223, 17224, 17339, 17348, 17349, 24830, 24838
 24839, 24847, 24848, 24856, 24857, 24865, 24866, 24874, 24875, 24883, 24884, 24892, 24893, 24901, 24902, 24910
 24911, 24919, 25910, 25918, 25919, 25927, 25928, 25936, 25937, 25945, 25946, 25954, 25955, 25963, 25964, 25972
 25973, 25981, 25982, 25990, 25991, 25999, 26000, 26006, 26007, 26013, 26014, 26020, 26021, 26027, 26028, 26034
 26035, 26041, 26042, 26048, 26049, 26055, 26056, 26062, 26063, 26069, 26840, 26846, 26847, 26853, 26854, 26860
 26861, 26867, 26868, 26874, 26875, 26881, 26882, 26888, 26889, 26895, 26896, 26902, 26903, 26909
*Nset, nset=CoreKanten_medial
     4,     7,    10,    11,    12,    13,   170,   171,   172,   173,   174,   175,   176,   177,   178,   179
   180,   181,   416,   417,   418,   419,   420,   421,   422,   423,   424,   425,   426,   427,   428,   429
   430,   431,   432,   433,   434,   435,   436,   437,   438,   439,   440,   441,   442,   443,   444,   445
   446,   447,   448,   449,   450,   451,   452,   453,   454,   455,   456,   457,   458,   459,   460,   461
   462,   463,   464,   465,   466,   467,   468,   469,   470,   471,   472,   473,   474,   475,   476,   477
   478,   479,   480,   481,   482,   483,   484,   485,   486,   487,   488,   489,   490,   491,   492,   493
   494,   495,   496,   497,   498,   499,   500,   501,   502,   503,   504,  3101,  3102,  3103,  3104,  3105
  3106,  3107,  3108,  3109,  3110,  3111,  3112,  3113,  3114,  3115,  3116,  3117,  3118,  3119,  3120,  3121
  3122,  3123,  3124,  3125,  3126,  3127,  3128,  3129,  3130,  3131,  3132,  3133,  3134,  3135,  3136,  3137
  3138,  3139,  3140,  3141,  3142,  3143,  3144,  3145,  3146,  3147,  3148,  3149,  3150,  3151,  3152,  3153
  3154,  3155,  3156,  3157,  3158,  3159,  3160,  3161,  3162,  3163,  3164,  3165,  3166,  3167,  3168,  3169
  3170,  3171,  3172,  3173,  3174,  3175,  3176,  3177,  3178,  3179,  3180,  3181,  3182,  3183,  3184,  3185
  3186,  3187,  3188,  3189,  3190,  3191,  3192,  3193,  3194,  3195,  3196,  3197,  3198,  3199,  3200,  3201
  3202,  3203,  3204,  3205,  3206,  5382,  5383,  5384,  5385,  5386,  5387,  5388,  5389,  5390,  5391,  5392
  5393,  5394,  5395,  5396,  5397,  5398,  5399,  5400,  5401,  5402,  5403,  5404,  5405,  5406,  5407,  5408
  5409,  5410,  5411,  5412,  5413,  5414,  5415,  5416,  5417,  5418,  5419,  5420,  5421,  5422,  5423,  5424
  5425,  5426,  5427,  5428,  5429,  5430,  5431,  5432,  5433,  5434,  5435,  5436,  5437,  5438,  5439,  5440
  5441,  5442,  5443,  5444,  5445,  5446,  5447,  5448,  5449,  5450,  5451,  5452,  5453,  5454,  5455,  5456
  5457,  5458,  5459,  5460,  5461,  5462,  5463,  5464,  5465,  5466,  5467,  5468,  5469,  5470,  5471,  5472
  5473,  5474,  5475,  5476,  5477,  5478,  5479,  5480,  5481,  5482,  5483,  5484,  5485,  5486,  5487,  5488
** ... 81 like lines cut
*Elset, elset=CoreKanten_medial, generate
 16201,  17450,      1
** Section: secEuler
*Eulerian Section, elset=Soil_All
HYPO-VW96-Sand, imatHYPO-VW96-Sand
*Surface, type=EULERIAN MATERIAL, name=imatHYPO-VW96-Sand
imatHYPO-VW96-Sand
*End Part
**  
**
** ASSEMBLY
**
*Assembly, name=Assembly
**  
*Instance, name=Pile-1, part=Pile
          0.,           0.,          27.
*End Instance
**  
*Instance, name=Soil-1, part=Soil
*End Instance
**  
*Instance, name=Presse-1, part=Presse
          0.,           0.,          39.
*End Instance
**  
*Surface, type=NODE, name=Presse-1_Presse_Unten_CNS_, internal
Presse-1.Presse_Unten, 1.
*Surface, type=NODE, name=Pile-1_Force_Application_CNS_, internal
Pile-1.Force_Application, 1.
** Constraint: Presse_rigid_body
*Rigid Body, ref node=Presse-1.Presse_RP, elset=Presse-1.Presse_All
** Constraint: tie
*Tie, name=tie, adjust=yes
Pile-1_Force_Application_CNS_, Presse-1_Presse_Unten_CNS_
*End Assembly
*Amplitude, name=Amp_Einpressen
             0.,              0.,              9.,              1.
** 
** MATERIALS
** 
*Material, name=HYPO-VW96-Sand
*Density
 1.64,
*Elastic
30000., 0.25
*Mohr Coulomb
 31.5,10.
*Mohr Coulomb Hardening
 0.1,0.
*Material, name=Stahl
*Density
 7.8,
*Elastic
 2.1e+08, 0.3
** 
** INTERACTION PROPERTIES
** 
*Surface Interaction, name=Kontakt
*Friction
 0.15,
*Surface Behavior, pressure-overclosure=HARD
** 
** BOUNDARY CONDITIONS
** 
** Name: Back Type: Displacement/Rotation
*Boundary
Soil-1.Back, 1, 1
Soil-1.Back, 2, 2
** Name: Bottom Type: Displacement/Rotation
*Boundary
Soil-1.Bottom, 3, 3
** Name: Eindringen_Presse Type: Displacement/Rotation
*Boundary
Presse-1.Presse_RP, 1, 1
Presse-1.Presse_RP, 2, 2
Presse-1.Presse_RP, 3, 3
Presse-1.Presse_RP, 4, 4
Presse-1.Presse_RP, 5, 5
Presse-1.Presse_RP, 6, 6
** Name: Symmetrie_Pile Type: Displacement/Rotation
*Boundary
Pile-1.Pile_All, 1, 1
Pile-1.Pile_All, 2, 2
Pile-1.Pile_All, 4, 4
Pile-1.Pile_All, 5, 5
Pile-1.Pile_All, 6, 6
** Name: XZ_Face Type: Symmetry/Antisymmetry/Encastre
*Boundary
Soil-1.XZ_Face, YSYMM
** Name: YZ_Face Type: Symmetry/Antisymmetry/Encastre
*Boundary
Soil-1.YZ_Face, XSYMM
** 
** PREDEFINED FIELDS
** 
** Name: K0   Type: Geostatic stress
*Initial Conditions, type=STRESS, GEOSTATIC
Soil-1.Soil_All_Geosta, 0., 27., -434.387, 0., 0.5, 0.5
** Name: Materialzuweisung   Type: Material assignment
*Initial Conditions, type=VOLUME FRACTION
Soil-1.Soil_All_Geosta, Soil-1.imatHYPO-VW96-Sand, 1.
** 
** INTERACTIONS
** 
** Interaction: Allgemeinkontakt
*Contact, op=NEW
*Contact Inclusions, ALL EXTERIOR
*Contact Property Assignment
 ,  , Kontakt
** ----------------------------------------------------------------
** 
** STEP: Schwerkraft
** 
*Step, name=Schwerkraft, nlgeom=YES
*Dynamic, Explicit
, 0.1
*Bulk Viscosity
0.42, 1.2
** 
** LOADS
** 
** Name: Schwerkraft   Type: Gravity
*Dload
Soil-1.Soil_All, GRAV, 9.81, 0., 0., -1.
** 
** OUTPUT REQUESTS
** 
*Restart, write, number interval=1, time marks=NO
** 
** FIELD OUTPUT: all-profil-vol
** 
*Output, field, time interval=0.1
*Node Output, nset=Pile-1.Pile_All
U, 
*Element Output, elset=Pile-1.Pile_All, directions=YES
S, 
** 
** FIELD OUTPUT: FieldOutSoil
** 
*Node Output, nset=Soil-1.Soil_All
A, U
*Element Output, elset=Soil-1.Soil_All, directions=YES
EVF, SVAVG
** 
** HISTORY OUTPUT: mantel
** 
*Output, history, time interval=0.01
*Contact Output, surface=Pile-1.Mantel
CFS3, 
** 
** HISTORY OUTPUT: RF
** 
*Node Output, nset=Presse-1.Presse_RP
RF1, RF2, RF3, RM3, U3
** 
** HISTORY OUTPUT: spitzendruck
** 
*Contact Output, surface=Pile-1.spitzendruck
CFN3, 
*End Step
** ----------------------------------------------------------------
** 
** STEP: Einpressen
** 
*Step, name=Einpressen, nlgeom=YES
*Dynamic, Explicit
, 9.
*Bulk Viscosity
0.42, 1.2
** 
** BOUNDARY CONDITIONS
** 
** Name: Eindringen_Presse Type: Displacement/Rotation
*Boundary, amplitude=Amp_Einpressen
Presse-1.Presse_RP, 1, 1
Presse-1.Presse_RP, 2, 2
Presse-1.Presse_RP, 3, 3, -9.
Presse-1.Presse_RP, 4, 4
Presse-1.Presse_RP, 5, 5
Presse-1.Presse_RP, 6, 6
** 
** OUTPUT REQUESTS
** 
*Restart, write, number interval=1, time marks=NO
** 
** FIELD OUTPUT: all-profil-vol
** 
*Output, field, time interval=0.1
*Node Output, nset=Pile-1.Pile_All
U, 
*Element Output, elset=Pile-1.Pile_All, directions=YES
S, 
** 
** FIELD OUTPUT: FieldOutSoil
** 
*Node Output, nset=Soil-1.Soil_All
A, U
*Element Output, elset=Soil-1.Soil_All, directions=YES
EVF, SVAVG
** 
** HISTORY OUTPUT: mantel
** 
*Output, history, time interval=0.01
*Contact Output, surface=Pile-1.Mantel
CFS3, 
** 
** HISTORY OUTPUT: RF
** 
*Node Output, nset=Presse-1.Presse_RP
RF1, RF2, RF3, RM3, U3
** 
** HISTORY OUTPUT: spitzendruck
** 
*Contact Output, surface=Pile-1.spitzendruck
CFN3, 
*End Step
