*Heading
** Job name: CPT_90_HPM_schlag_Voll1 Model name: CPT_90_HPM_schlag_Voll1
** Generated by: Abaqus/CAE 2023
*Preprint, echo=NO, model=NO, history=NO, contact=NO
**
** PARTS
**
*Part, name=Pile
*Node
      1,           0., -0.300000012,          0.5
      2,           0.,           0.,          0.5
      3, -0.300000012,           0.,          0.5
      4,           0., -0.300000012,           1.
      5,           0.,           0.,           1.
      6, -0.300000012,           0.,           1.
      7,           0., -0.300000012,          1.5
      8,           0.,           0.,          1.5
      9, -0.300000012,           0.,          1.5
     10,           0., -0.300000012,           2.
     11,           0.,           0.,           2.
     12, -0.300000012,           0.,           2.
     13,           0., -0.300000012,          2.5
     14,           0.,           0.,          2.5
     15, -0.300000012,           0.,          2.5
     16,           0., -0.300000012,           3.
     17,           0.,           0.,           3.
     18, -0.300000012,           0.,           3.
     19,           0., -0.300000012,          3.5
     20,           0.,           0.,          3.5
** ... 187 like lines cut
*Element, type=C3D8R
1, 116,   1,   2,   3, 117,   4,   5,   6
2, 117,   4,   5,   6, 118,   7,   8,   9
3, 118,   7,   8,   9, 119,  10,  11,  12
4, 119,  10,  11,  12, 120,  13,  14,  15
5, 120,  13,  14,  15, 121,  16,  17,  18
6, 121,  16,  17,  18, 122,  19,  20,  21
7, 122,  19,  20,  21, 123,  22,  23,  24
8, 123,  22,  23,  24, 124,  25,  26,  27
 9, 124,  25,  26,  27, 125,  28,  29,  30
10, 125,  28,  29,  30, 126,  31,  32,  33
11, 126,  31,  32,  33, 127,  34,  35,  36
12, 127,  34,  35,  36, 128,  37,  38,  39
13, 128,  37,  38,  39, 129,  40,  41,  42
14, 129,  40,  41,  42, 130,  43,  44,  45
15, 130,  43,  44,  45, 131,  46,  47,  48
16, 131,  46,  47,  48, 132,  49,  50,  51
17, 132,  49,  50,  51, 133,  52,  53,  54
18, 133,  52,  53,  54, 134,  55,  56,  57
19, 134,  55,  56,  57, 135,  58,  59,  60
20, 135,  58,  59,  60, 136,  61,  62,  63
** ... 68 like lines cut
*Nset, nset=Pile_All, generate
   1,  207,    1
*Elset, elset=Pile_All, generate
  1,  88,   1
*Nset, nset=Force_Application
  64,  65,  66,  91, 115, 137, 160, 205, 206
*Elset, elset=Force_Application
 21, 43, 86, 87
*Nset, nset=spitzendruck
  88,  89,  90, 113, 114, 159, 182, 184, 207
*Elset, elset=spitzendruck
 42, 64, 65, 88
*Nset, nset=CylindersFaces0
  88,  89,  90, 113, 114, 159, 182, 184, 207
*Elset, elset=CylindersFaces0
 42, 64, 65, 88
*Nset, nset=CylindersFaces1
   1,   2,   3,  87, 112, 116, 158, 181, 183
*Elset, elset=CylindersFaces1
  1, 41, 42, 63, 64, 65, 66, 88
*Nset, nset=CylindersFaces2
   4,   5,   6,  86, 111, 117, 157, 180, 185
*Elset, elset=CylindersFaces2
  1,  2, 40, 41, 62, 63, 66, 67
*Nset, nset=CylindersFaces3
   7,   8,   9,  85, 110, 118, 156, 179, 186
*Elset, elset=CylindersFaces3
  2,  3, 39, 40, 61, 62, 67, 68
*Nset, nset=CylindersFaces4
  10,  11,  12,  84, 109, 119, 155, 178, 187
*Elset, elset=CylindersFaces4
  3,  4, 38, 39, 60, 61, 68, 69
*Nset, nset=CylindersFaces5
  13,  14,  15,  83, 108, 120, 154, 177, 188
*Elset, elset=CylindersFaces5
  4,  5, 37, 38, 59, 60, 69, 70
*Nset, nset=CylindersFaces6
  16,  17,  18,  82, 107, 121, 153, 176, 189
*Elset, elset=CylindersFaces6
  5,  6, 36, 37, 58, 59, 70, 71
*Nset, nset=CylindersFaces7
  19,  20,  21,  81, 106, 122, 152, 175, 190
*Elset, elset=CylindersFaces7
  6,  7, 35, 36, 57, 58, 71, 72
*Nset, nset=CylindersFaces8
  22,  23,  24,  80, 105, 123, 151, 174, 191
*Elset, elset=CylindersFaces8
  7,  8, 34, 35, 56, 57, 72, 73
*Nset, nset=CylindersFaces9
  25,  26,  27,  79, 104, 124, 150, 173, 192
*Elset, elset=CylindersFaces9
  8,  9, 33, 34, 55, 56, 73, 74
*Nset, nset=CylindersFaces10
  28,  29,  30,  78, 103, 125, 149, 172, 193
*Elset, elset=CylindersFaces10
  9, 10, 32, 33, 54, 55, 74, 75
*Nset, nset=CylindersFaces11
  31,  32,  33,  77, 102, 126, 148, 171, 194
*Elset, elset=CylindersFaces11
 10, 11, 31, 32, 53, 54, 75, 76
*Nset, nset=CylindersFaces12
  34,  35,  36,  76, 101, 127, 147, 170, 195
*Elset, elset=CylindersFaces12
 11, 12, 30, 31, 52, 53, 76, 77
*Nset, nset=CylindersFaces13
  37,  38,  39,  75, 100, 128, 146, 169, 196
*Elset, elset=CylindersFaces13
 12, 13, 29, 30, 51, 52, 77, 78
*Nset, nset=CylindersFaces14
  40,  41,  42,  74,  99, 129, 145, 168, 197
*Elset, elset=CylindersFaces14
 13, 14, 28, 29, 50, 51, 78, 79
*Nset, nset=CylindersFaces15
  43,  44,  45,  73,  98, 130, 144, 167, 198
*Elset, elset=CylindersFaces15
 14, 15, 27, 28, 49, 50, 79, 80
*Nset, nset=CylindersFaces16
  46,  47,  48,  72,  97, 131, 143, 166, 199
*Elset, elset=CylindersFaces16
 15, 16, 26, 27, 48, 49, 80, 81
*Nset, nset=CylindersFaces17
  49,  50,  51,  71,  96, 132, 142, 165, 200
*Elset, elset=CylindersFaces17
 16, 17, 25, 26, 47, 48, 81, 82
*Nset, nset=CylindersFaces18
  52,  53,  54,  70,  95, 133, 141, 164, 201
*Elset, elset=CylindersFaces18
 17, 18, 24, 25, 46, 47, 82, 83
*Nset, nset=CylindersFaces19
  55,  56,  57,  69,  94, 134, 140, 163, 202
*Elset, elset=CylindersFaces19
 18, 19, 23, 24, 45, 46, 83, 84
*Nset, nset=CylindersFaces20
  58,  59,  60,  68,  93, 135, 139, 162, 203
*Elset, elset=CylindersFaces20
 19, 20, 22, 23, 44, 45, 84, 85
*Nset, nset=CylindersFaces21
  61,  62,  63,  67,  92, 136, 138, 161, 204
*Elset, elset=CylindersFaces21
 20, 21, 22, 43, 44, 85, 86, 87
*Nset, nset=CylindersFaces22
  64,  65,  66,  91, 115, 137, 160, 205, 206
*Elset, elset=CylindersFaces22
 21, 43, 86, 87
*Elset, elset=_Mantel_S5, internal
 22, 23, 24, 25, 26, 27, 28, 29, 30, 31, 32, 33, 34, 35, 36, 37
 38, 39, 40, 41, 42, 44, 45, 46, 47, 48, 49, 50, 51, 52, 53, 54
 55, 56, 57, 58, 59, 60, 61, 62, 63, 64, 65
*Elset, elset=_Mantel_S6, internal
  1,  2,  3,  4,  5,  6,  7,  8,  9, 10, 11, 12, 13, 14, 15, 16
 17, 18, 19, 20, 21, 22, 23, 24, 25, 26, 27, 28, 29, 30, 31, 32
 33, 34, 35, 36, 37, 38, 39, 40, 41, 42, 44, 45, 46, 47, 48, 49
 50, 51, 52, 53, 54, 55, 56, 57, 58, 59, 60, 61, 62, 63, 64, 65
 88,
*Elset, elset=_Mantel_S3, internal
  1,  2,  3,  4,  5,  6,  7,  8,  9, 10, 11, 12, 13, 14, 15, 16
 17, 18, 19, 20, 21, 43, 66, 67, 68, 69, 70, 71, 72, 73, 74, 75
 76, 77, 78, 79, 80, 81, 82, 83, 84, 85, 86, 87, 88
*Elset, elset=_Mantel_S4, internal
 43, 66, 67, 68, 69, 70, 71, 72, 73, 74, 75, 76, 77, 78, 79, 80
 81, 82, 83, 84, 85, 86, 87
*Surface, type=ELEMENT, name=Mantel
_Mantel_S5, S5
_Mantel_S6, S6
_Mantel_S4, S4
_Mantel_S3, S3
*Elset, elset=_Pile_Surface_S5, internal
 22, 23, 24, 25, 26, 27, 28, 29, 30, 31, 32, 33, 34, 35, 36, 37
 38, 39, 40, 41, 42, 44, 45, 46, 47, 48, 49, 50, 51, 52, 53, 54
 55, 56, 57, 58, 59, 60, 61, 62, 63, 64, 65
*Elset, elset=_Pile_Surface_S6, internal
  1,  2,  3,  4,  5,  6,  7,  8,  9, 10, 11, 12, 13, 14, 15, 16
 17, 18, 19, 20, 21, 22, 23, 24, 25, 26, 27, 28, 29, 30, 31, 32
 33, 34, 35, 36, 37, 38, 39, 40, 41, 42, 44, 45, 46, 47, 48, 49
 50, 51, 52, 53, 54, 55, 56, 57, 58, 59, 60, 61, 62, 63, 64, 65
 88,
*Elset, elset=_Pile_Surface_S2, internal
 21, 42, 43, 64, 65, 86, 87, 88
*Elset, elset=_Pile_Surface_S3, internal
  1,  2,  3,  4,  5,  6,  7,  8,  9, 10, 11, 12, 13, 14, 15, 16
 17, 18, 19, 20, 21, 43, 66, 67, 68, 69, 70, 71, 72, 73, 74, 75
 76, 77, 78, 79, 80, 81, 82, 83, 84, 85, 86, 87, 88
*Elset, elset=_Pile_Surface_S4, internal
 43, 66, 67, 68, 69, 70, 71, 72, 73, 74, 75, 76, 77, 78, 79, 80
 81, 82, 83, 84, 85, 86, 87
*Surface, type=ELEMENT, name=Pile_Surface
_Pile_Surface_S5, S5
_Pile_Surface_S6, S6
_Pile_Surface_S2, S2
_Pile_Surface_S4, S4
_Pile_Surface_S3, S3
*Elset, elset=_spitzendruck_S2, internal
 42, 64, 65, 88
*Surface, type=ELEMENT, name=spitzendruck
_spitzendruck_S2, S2
** Section: Pile_Section
*Solid Section, elset=Pile_All, material=Stahl
,
*End Part
**  
*Part, name=Presse
*Node
      1, -0.212132037,  0.212132037,           0.
      2, -0.300000012,           0.,           0.
      3, -0.212132037, -0.212132037,           0.
      4,           0., -0.300000012,           0.
      5,  0.212132037, -0.212132037,           0.
      6,  0.300000012,           0.,           0.
      7,  0.212132037,  0.212132037,           0.
      8,           0.,  0.300000012,           0.
      9,           0., 1.98682137e-09,           0.
     10, -0.212132037,  0.212132037,          0.5
     11, -0.300000012,           0.,          0.5
     12, -0.212132037, -0.212132037,          0.5
     13,           0., -0.300000012,          0.5
     14,  0.212132037, -0.212132037,          0.5
     15,  0.300000012,           0.,          0.5
     16,  0.212132037,  0.212132037,          0.5
     17,           0.,  0.300000012,          0.5
     18,           0., 1.98682137e-09,          0.5
*Element, type=C3D8R
1, 12, 11, 18, 13,  3,  2,  9,  4
2, 16, 15, 18, 17,  7,  6,  9,  8
3, 18, 11, 10, 17,  9,  2,  1,  8
4, 18, 15, 14, 13,  9,  6,  5,  4
*Node
     19,           0.,           0.,          0.5
*Nset, nset=Presse-RefPt_, internal
19, 
*Nset, nset=Presse_RP
 19,
*Nset, nset=Presse_All, generate
  1,  18,   1
*Elset, elset=Presse_All, generate
 1,  4,  1
*Nset, nset=Presse_Unten, generate
 1,  9,  1
*Elset, elset=Presse_Unten, generate
 1,  4,  1
** Section: Presse_Section
*Solid Section, elset=Presse_All, material=Stahl
,
*End Part
**  
*Part, name=Soil
*Node
      1,           0.,           2.,          22.
      2,           0.,           6.,          22.
      3,           0.,           6.,         12.5
      4,           0.,           2.,         12.5
      5,           6.,           0.,          22.
      6,           2.,           0.,          22.
      7,           2.,           0.,         12.5
      8,           6.,           0.,         12.5
      9,           0.,           0.,          22.
     10,           0.,           0.,         12.5
     11,           0.,           2.,           0.
     12,           2.,           0.,           0.
     13,           0.,           0.,           0.
     14,           6.,           0.,          26.
     15,           2.,           0.,          26.
     16,           0.,           2.,          26.
     17,           0.,           6.,          26.
     18,           0.,           0.,          26.
     19,           2.,           0.,          28.
     20,           0.,           2.,          28.
** ... 41850 like lines cut
*Element, type=EC3D8R
   1,  1431,  1073,  1147,  1189, 11661, 11303, 11377, 11419
   2,  1119,  1146,  1232,  1229, 11349, 11376, 11462, 11459
   3,  1342,    45,     2,    44, 11572,  3037,   153,  1993
   4,    43,  1313,  1342,    44,  1994, 11543, 11572,  1993
   5,  1313,  1194,  1239,  1279, 11543, 11424, 11469, 11509
   6,  1155,  1436,  1182,  1198, 11385, 11666, 11412, 11428
   7,  1192,  1236,  1237,  1193, 11422, 11466, 11467, 11423
   8,  1214,  1198,  1182,  1437, 11444, 11428, 11412, 11667
   9,  1117,  1452,  1451,  1074, 11347, 11682, 11681, 11304
  10,  1236,  1192,  1233,  1273, 11466, 11422, 11463, 11503
  11,  1216,  1468,  1184,  1441, 11446, 11698, 11414, 11671
  12,  1431,  1189,    37,    36, 11661, 11419,  2000,  2001
  13,   105,  1131,  1130,   106,  2137, 11361, 11360,  2136
  14,    97,  1135,  1134,    98,  2145, 11365, 11364,  2144
  15,  1090,  1459,  1164,  1137, 11320, 11689, 11394, 11367
  16,  1105,  1454,  1140,  1104, 11335, 11684, 11370, 11334
  17,    57,  1344,  1275,  1138,  3159, 11574, 11505, 11368
  18,  1435,  1386,  1434,  1421, 11665, 11616, 11664, 11651
  19,  1412,    55,     3,    54, 11642,  3157,   178,  3046
  20,  1415,  1412,  1421,  1344, 11645, 11642, 11651, 11574
** ... 37637 like lines cut
*Nset, nset=sketchFace
    19,    20,    21,    32,    33,    34,    35,   720,   721,   722,   723,   724,   725,   726,   727,   728
   729,   730,   731,   732,   733,   734,   735,   736,   737,   738,   739,   740,   741,   742,   743,   744
   745,   746,   747,   748,   749,   750,   751,   752,   753,   754,   755,   756,   757,   758,   759,   760
   977,   978,   979,   980,   981,   982,   983,   984,   997,   998,   999,  1000,  1001,  1002,  1003,  1004
  1005,  1006,  1007,  1008,  1009,  1010,  1011,  1012,  1013,  1014,  1015,  1016,  1017,  1018,  1019,  1020
  1033,  1034,  1035,  1036,  1037,  1038,  1039,  1040,  1053,  1054,  1055,  1056,  1057,  1058,  1059,  1060
  1061,  1062,  1063,  1064,  1065,  1066,  1067,  1068,  1069,  1070,  1071,  1072,  8319,  8320,  8321,  8322
  8323,  8324,  8325,  8326,  8327,  8328,  8329,  8330,  8331,  8332,  8333,  8334,  8335,  8336,  8337,  8338
  8339,  8340,  8341,  8342,  8343,  8344,  8345,  8346,  8347,  8348,  8349,  8350,  8351,  8352,  8353,  8354
  8355,  8356,  8357,  8358,  8359,  8360,  8361,  8362,  8363,  8364,  8365,  8366,  8367,  8368,  8369,  8370
  8371,  8372,  8373,  8374,  8375,  8376,  8377,  8378,  8379,  8380,  8381,  8382,  8383,  8384,  8385,  8386
  8387,  8388,  8389,  8390,  8391,  8392,  8393,  8394,  8395,  8396,  8397,  8398,  8399,  8400,  8401,  8402
  8403,  8404,  8405,  8406,  8407,  8408,  8409,  8410,  8411,  8412,  8413,  8414,  8415,  8416,  8417,  8418
  8419,  8420,  8421,  8422,  8423,  8424,  8425,  8426,  8427,  8428,  8429,  8430,  8431,  8432,  8433,  8434
  8435,  8436,  8437,  8438,  8439,  8440,  8441,  8442,  8443,  8444,  8445,  8446, 10847, 10848, 10849, 10850
 10851, 10852, 10853, 10854, 10855, 10856, 10857, 10858, 10859, 10860, 10861, 10862, 10863, 10864, 10865, 10866
 10867, 10868, 10869, 10870, 10871, 10872, 10873, 10874, 10875, 10876, 10877, 10878, 10879, 10880, 10881, 10882
 10883, 10884, 10885, 10886, 10887, 10888, 10889, 10890, 10891, 10892, 10893, 10894, 10895, 10896, 10897, 10898
 10899, 10900, 10901, 10902, 10903, 10904, 10905, 10906, 10907, 10908, 10909, 10910, 10911, 10912, 10913, 10914
 10915, 10916, 10917, 10918, 10919, 10920, 10921, 10922, 10923, 10924, 10925, 10926, 10927, 10928, 10929, 10930
** ... 9 like lines cut
*Elset, elset=sketchFace
 29540, 29541, 29542, 29543, 29544, 29545, 29546, 29547, 29548, 29549, 29550, 29551, 29552, 29553, 29554, 29555
 29556, 29557, 29558, 29559, 29560, 29561, 29562, 29563, 29564, 29565, 29566, 29567, 29568, 29569, 29570, 29571
 29572, 29573, 29574, 29575, 29576, 29577, 29578, 29579, 29580, 29581, 29582, 29583, 29584, 29585, 29586, 29587
 29588, 29589, 29590, 29591, 29592, 29593, 29594, 29595, 29596, 29597, 29598, 29599, 29600, 29601, 29602, 29603
 29604, 29605, 29606, 29607, 29608, 29609, 29610, 29611, 29612, 29613, 29614, 29615, 29616, 29617, 29618, 29619
 29620, 29621, 29622, 29623, 29624, 29625, 29626, 29627, 29628, 29629, 29630, 29631, 29632, 29633, 29634, 29635
 29636, 29637, 29638, 29639, 29640, 29641, 29642, 29643, 29644, 29645, 29646, 29647, 29648, 29649, 29650, 29651
 29652, 29653, 29654, 29655, 29656, 29657, 29658, 29659, 29660, 29661, 29662, 29663, 29664, 29665, 29666, 29667
 29668, 29669, 29670, 29671, 29672, 29673, 29674, 29675, 29676, 29677, 29678, 29679, 29680, 29681, 29682, 29683
 29684, 29685, 29686, 29687, 29688, 34386, 34387, 34388, 34389, 34390, 34391, 34392, 34393, 34394, 34503, 34504
 34505, 34506, 34507, 34508, 34509, 34510, 34511, 34620, 34621, 34622, 34623, 34624, 34625, 34626, 34627, 34628
 34737, 34738, 34739, 34740, 34741, 34742, 34743, 34744, 34745, 34854, 34855, 34856, 34857, 34858, 34859, 34860
 34861, 34862, 34971, 34972, 34973, 34974, 34975, 34976, 34977, 34978, 34979, 35088, 35089, 35090, 35091, 35092
 35093, 35094, 35095, 35096, 35205, 35206, 35207, 35208, 35209, 35210, 35211, 35212, 35213, 35322, 35323, 35324
 35325, 35326, 35327, 35328, 35329, 35330, 35439, 35440, 35441, 35442, 35443, 35444, 35445, 35446, 35447, 35556
 35557, 35558, 35559, 35560, 35561, 35562, 35563, 35564, 35673, 35674, 35675, 35676, 35677, 35678, 35679, 35680
 35681, 35790, 35791, 35792, 35793, 35794, 35795, 35796, 35797, 35798, 35931, 35932, 35933, 35934, 35935, 35936
 35937, 35938, 35939, 35940, 35941, 36074, 36075, 36076, 36077, 36078, 36079, 36080, 36081, 36082, 36083, 36084
 36217, 36218, 36219, 36220, 36221, 36222, 36223, 36224, 36225, 36226, 36227, 36360, 36361, 36362, 36363, 36364
 36365, 36366, 36367, 36368, 36369, 36370, 36503, 36504, 36505, 36506, 36507, 36508, 36509, 36510, 36511, 36512
** ... 6 like lines cut
*Nset, nset=sketchUpEdge
   19,   20,   21,   32,   33,   34,  720,  721,  722,  723,  724,  725,  726,  727,  728,  729
  730,  731,  732,  733,  734,  735,  736,  737,  738,  739,  740,  741,  742,  743,  744,  745
  746,  977,  978,  979,  980,  981,  982,  983,  984,  997,  998,  999, 1000, 1001, 1002, 1003
 1004, 1005, 1006, 1007, 1008, 1063, 1064, 1065, 1066, 1067, 1068, 1069, 1070, 1071, 1072
*Elset, elset=sketchUpEdge
 29540, 29541, 29543, 29544, 29545, 29547, 29548, 29549, 29551, 29552, 29553, 29556, 29557, 29561, 29570, 29571
 29589, 29591, 29599, 29621, 29635, 29662, 29670, 29671, 29675, 29676, 29681, 29682, 34386, 34387, 34388, 34389
 34390, 34391, 34392, 34393, 34394, 34503, 34620, 34737, 34854, 34971, 35088, 35205, 35322, 35439, 35556, 35673
 35790, 35931, 36074, 36217, 36360, 36503, 36646, 36789, 36932, 37075, 37218, 37361, 37504, 37647, 37648, 37649
 37650, 37651, 37652, 37653, 37654, 37655, 37656, 37657
*Nset, nset=Soil_All, generate
     1,  41870,      1
*Elset, elset=Soil_All, generate
     1,  37657,      1
*Nset, nset=Bottom
    11,    12,    13,    27,    28,    30,    31,   468,   469,   470,   471,   472,   473,   474,   475,   476
   477,   478,   479,   480,   481,   482,   483,   484,   485,   486,   487,   488,   489,   490,   491,   492
   493,   494,   495,   496,   497,   498,   499,   500,   501,   502,   503,   504,   505,   506,   507,   508
   843,   844,   845,   846,   847,   848,   849,   850,   875,   876,   877,   878,   879,   880,   881,   882
   883,   884,   885,   886,   887,   888,   889,   890,   891,   892,   893,   894,   895,   896,   897,   898
   919,   920,   921,   922,   923,   924,   925,   926,   939,   940,   941,   942,   943,   944,   945,   946
   947,   948,   949,   950,   951,   952,   953,   954,   955,   956,  5783,  5784,  5785,  5786,  5787,  5788
  5789,  5790,  5791,  5792,  5793,  5794,  5795,  5796,  5797,  5798,  5799,  5800,  5801,  5802,  5803,  5804
  5805,  5806,  5807,  5808,  5809,  5810,  5811,  5812,  5813,  5814,  5815,  5816,  5817,  5818,  5819,  5820
  5821,  5822,  5823,  5824,  5825,  5826,  5827,  5828,  5829,  5830,  5831,  5832,  5833,  5834,  5835,  5836
  5837,  5838,  5839,  5840,  5841,  5842,  5843,  5844,  5845,  5846,  5847,  5848,  5849,  5850,  5851,  5852
  5853,  5854,  5855,  5856,  5857,  5858,  5859,  5860,  5861,  5862,  5863,  5864,  5865,  5866,  5867,  5868
  5869,  5870,  5871,  5872,  5873,  5874,  5875,  5876,  5877,  5878,  5879,  5880,  5881,  5882,  5883,  5884
  5885,  5886,  5887,  5888,  5889,  5890,  5891,  5892,  5893,  5894,  5895,  5896,  5897,  5898,  5899,  5900
  5901,  5902,  5903,  5904,  5905,  5906,  5907,  5908,  5909,  5910,  9791,  9792,  9793,  9794,  9795,  9796
  9797,  9798,  9799,  9800,  9801,  9802,  9803,  9804,  9805,  9806,  9807,  9808,  9809,  9810,  9811,  9812
  9813,  9814,  9815,  9816,  9817,  9818,  9819,  9820,  9821,  9822,  9823,  9824,  9825,  9826,  9827,  9828
  9829,  9830,  9831,  9832,  9833,  9834,  9835,  9836,  9837,  9838,  9839,  9840,  9841,  9842,  9843,  9844
  9845,  9846,  9847,  9848,  9849,  9850,  9851,  9852,  9853,  9854,  9855,  9856,  9857,  9858,  9859,  9860
  9861,  9862,  9863,  9864,  9865,  9866,  9867,  9868,  9869,  9870,  9871,  9872,  9873,  9874,  9875,  9876
** ... 8 like lines cut
*Elset, elset=Bottom
 20242, 20243, 20244, 20245, 20246, 20247, 20248, 20249, 20250, 20251, 20252, 20253, 20254, 20255, 20256, 20257
 20258, 20259, 20260, 20261, 20262, 20263, 20264, 20265, 20266, 20267, 20268, 20269, 20270, 20271, 20272, 20273
 20274, 20275, 20276, 20277, 20278, 20279, 20280, 20281, 20282, 20283, 20284, 20285, 20286, 20287, 20288, 20289
 20290, 20291, 20292, 20293, 20294, 20295, 20296, 20297, 20298, 20299, 20300, 20301, 20302, 20303, 20304, 20305
 20306, 20307, 20308, 20309, 20310, 20311, 20312, 20313, 20314, 20315, 20316, 20317, 20318, 20319, 20320, 20321
 20322, 20323, 20324, 20325, 20326, 20327, 20328, 20329, 20330, 20331, 20332, 20333, 20334, 20335, 20336, 20337
 20338, 20339, 20340, 20341, 20342, 20343, 20344, 20345, 20346, 20347, 20348, 20349, 20350, 20351, 20352, 20353
 20354, 20355, 20356, 20357, 20358, 20359, 20360, 20361, 20362, 20363, 20364, 20365, 20366, 20367, 20368, 20369
 20370, 20371, 20372, 20373, 20374, 20375, 20376, 20377, 20378, 20379, 20380, 20381, 20382, 20383, 20384, 20385
 20386, 20387, 20388, 20389, 20390, 30265, 30266, 30267, 30268, 30269, 30270, 30271, 30272, 30273, 30382, 30383
 30384, 30385, 30386, 30387, 30388, 30389, 30390, 30499, 30500, 30501, 30502, 30503, 30504, 30505, 30506, 30507
 30616, 30617, 30618, 30619, 30620, 30621, 30622, 30623, 30624, 30733, 30734, 30735, 30736, 30737, 30738, 30739
 30740, 30741, 30850, 30851, 30852, 30853, 30854, 30855, 30856, 30857, 30858, 30967, 30968, 30969, 30970, 30971
 30972, 30973, 30974, 30975, 31084, 31085, 31086, 31087, 31088, 31089, 31090, 31091, 31092, 31201, 31202, 31203
 31204, 31205, 31206, 31207, 31208, 31209, 31318, 31319, 31320, 31321, 31322, 31323, 31324, 31325, 31326, 31435
 31436, 31437, 31438, 31439, 31440, 31441, 31442, 31443, 31552, 31553, 31554, 31555, 31556, 31557, 31558, 31559
 31560, 31669, 31670, 31671, 31672, 31673, 31674, 31675, 31676, 31677, 31798, 31799, 31800, 31801, 31802, 31803
 31804, 31805, 31806, 31807, 31928, 31929, 31930, 31931, 31932, 31933, 31934, 31935, 31936, 31937, 32058, 32059
 32060, 32061, 32062, 32063, 32064, 32065, 32066, 32067, 32188, 32189, 32190, 32191, 32192, 32193, 32194, 32195
 32196, 32197, 32318, 32319, 32320, 32321, 32322, 32323, 32324, 32325, 32326, 32327, 32448, 32449, 32450, 32451
** ... 5 like lines cut
*Nset, nset=Back
    22,    23,    24,    25,    26,    28,    29,    30,    33,    34,   777,   778,   779,   780,   781,   782
   783,   784,   785,   786,   787,   788,   789,   790,   791,   792,   793,   794,   795,   796,   797,   798
   799,   800,   801,   802,   803,   812,   813,   814,   851,   852,   853,   854,   855,   856,   857,   858
   859,   860,   861,   862,   863,   864,   865,   866,   867,   868,   869,   870,   871,   872,   873,   874
   875,   876,   877,   878,   879,   880,   881,   882,   883,   884,   885,   886,   907,   908,   909,   910
   911,   912,   913,   914,   915,   916,   917,   918,   957,   958,   959,   960,   961,   962,   963,   964
   985,   986,   987,   988,   989,   990,   991,   992,   993,   994,   995,   996,   997,   998,   999,  1000
  1001,  1002,  1003,  1004,  1005,  1006,  1007,  1008,  1021,  1022,  1023,  1024,  1025,  1026,  1027,  1028
  1029,  1030,  1031,  1032,  8987,  8988,  8989,  8990,  8991,  8992,  8993,  8994,  8995,  8996,  8997,  8998
  8999,  9000,  9001,  9002,  9003,  9004,  9005,  9006,  9007,  9008,  9009,  9010,  9011,  9012,  9013,  9014
  9015,  9016,  9017,  9018,  9019,  9020,  9021,  9022,  9503,  9504,  9505,  9506,  9507,  9508,  9509,  9510
  9511,  9512,  9513,  9514,  9515,  9516,  9517,  9518,  9519,  9520,  9521,  9522,  9523,  9524,  9525,  9526
  9527,  9528,  9529,  9530,  9531,  9532,  9533,  9534,  9535,  9536,  9537,  9538,  9539,  9540,  9541,  9542
  9543,  9544,  9545,  9546,  9547,  9548,  9549,  9550,  9551,  9552,  9553,  9554,  9555,  9556,  9557,  9558
  9559,  9560,  9561,  9562,  9563,  9564,  9565,  9566,  9567,  9568,  9569,  9570,  9571,  9572,  9573,  9574
  9575,  9576,  9577,  9578,  9579,  9580,  9581,  9582,  9583,  9584,  9585,  9586,  9587,  9588,  9589,  9590
  9591,  9592,  9593,  9594,  9595,  9596,  9597,  9598,  9599,  9600,  9601,  9602,  9603,  9604,  9605,  9606
  9607,  9608,  9609,  9610,  9611,  9612,  9613,  9614,  9615,  9616,  9617,  9618,  9619,  9620,  9621,  9622
  9623,  9624,  9625,  9626,  9627,  9628,  9629,  9630,  9631,  9632,  9633,  9634,  9635,  9636,  9637,  9638
  9639,  9640,  9641,  9642,  9643,  9644,  9645,  9646, 10319, 10320, 10321, 10322, 10323, 10324, 10325, 10326
** ... 12 like lines cut
*Elset, elset=Back
 29689, 29698, 29707, 29716, 29725, 29734, 29743, 29752, 29761, 29770, 29779, 29788, 29797, 29806, 29815, 29824
 29833, 29842, 29851, 29860, 29869, 29878, 29887, 29896, 29905, 29914, 29923, 29932, 29941, 29950, 29959, 29968
 29977, 29986, 29995, 30004, 30013, 30022, 30031, 30040, 30049, 30058, 30067, 30076, 30085, 30094, 30103, 30112
 30121, 30130, 30139, 30148, 30157, 30166, 30175, 30184, 30193, 30202, 30211, 30220, 30229, 30238, 30247, 30256
 30265, 30274, 30283, 30292, 30301, 30310, 30319, 30328, 30337, 30346, 30355, 30364, 30373, 30382, 30391, 30400
 30409, 30418, 30427, 30436, 30445, 30454, 30463, 30472, 30481, 30490, 30499, 30508, 30517, 30526, 30535, 30544
 30553, 30562, 30571, 30580, 30589, 30598, 30607, 30616, 30625, 30634, 30643, 30652, 30661, 30670, 30679, 30688
 30697, 30706, 30715, 30724, 30733, 30742, 30751, 30760, 30769, 30778, 30787, 30796, 30805, 30814, 30823, 30832
 30841, 30850, 30859, 30868, 30877, 30886, 30895, 30904, 30913, 30922, 30931, 30940, 30949, 30958, 30967, 30976
 30985, 30994, 31003, 31012, 31021, 31030, 31039, 31048, 31057, 31066, 31075, 31084, 31093, 31102, 31111, 31120
 31129, 31138, 31147, 31156, 31165, 31174, 31183, 31192, 31201, 31210, 31219, 31228, 31237, 31246, 31255, 31264
 31273, 31282, 31291, 31300, 31309, 31318, 31327, 31336, 31345, 31354, 31363, 31372, 31381, 31390, 31399, 31408
 31417, 31426, 31435, 31444, 31453, 31462, 31471, 31480, 31489, 31498, 31507, 31516, 31525, 31534, 31543, 31552
 31561, 31570, 31579, 31588, 31597, 31606, 31615, 31624, 31633, 31642, 31651, 31660, 31669, 33370, 33376, 33377
 33379, 33429, 33440, 33446, 33447, 33449, 33499, 33510, 33516, 33517, 33519, 33569, 33580, 33586, 33587, 33589
 33639, 33650, 33656, 33657, 33659, 33709, 33720, 33726, 33727, 33729, 33779, 33790, 33796, 33797, 33799, 33849
 33860, 33866, 33867, 33869, 33919, 33930, 33936, 33937, 33939, 33989, 34000, 34006, 34007, 34009, 34059, 34070
 34076, 34077, 34079, 34129, 34140, 34146, 34147, 34149, 34199, 34210, 34216, 34217, 34219, 34269, 34278, 34287
 34296, 34305, 34314, 34323, 34332, 34341, 34350, 34359, 34368, 34377, 34386, 34395, 34404, 34413, 34422, 34431
 34440, 34449, 34458, 34467, 34476, 34485, 34494, 34503, 34512, 34521, 34530, 34539, 34548, 34557, 34566, 34575
** ... 9 like lines cut
*Nset, nset=XZ_Face
     5,     6,     7,     8,     9,    10,    12,    13,    14,    15,    18,    19,    21,    24,    25,    26
    27,    28,    34,    35,   190,   191,   192,   193,   194,   195,   196,   197,   198,   199,   200,   201
   202,   203,   204,   205,   206,   207,   208,   209,   210,   211,   212,   213,   214,   215,   216,   217
   218,   219,   220,   221,   222,   223,   224,   225,   226,   227,   228,   229,   230,   231,   232,   233
   234,   235,   236,   237,   238,   239,   240,   241,   242,   243,   244,   245,   246,   247,   248,   249
   250,   251,   252,   253,   254,   255,   256,   257,   258,   259,   260,   261,   262,   263,   264,   265
   266,   267,   268,   269,   270,   271,   272,   273,   274,   275,   276,   277,   278,   279,   280,   281
   282,   283,   284,   285,   286,   287,   288,   289,   290,   291,   292,   293,   294,   295,   311,   312
   313,   314,   315,   316,   317,   318,   319,   320,   321,   322,   323,   324,   325,   326,   327,   328
   329,   330,   331,   332,   333,   334,   335,   336,   337,   338,   339,   340,   341,   342,   343,   344
   345,   346,   347,   348,   349,   350,   351,   352,   353,   354,   355,   356,   357,   358,   359,   360
   361,   362,   363,   364,   365,   366,   367,   368,   369,   370,   371,   372,   373,   374,   375,   376
   377,   378,   379,   380,   381,   382,   383,   384,   385,   386,   387,   388,   389,   390,   391,   392
   393,   394,   395,   396,   397,   398,   399,   400,   401,   402,   418,   419,   420,   421,   422,   423
   424,   425,   426,   427,   428,   429,   430,   431,   444,   445,   446,   447,   448,   449,   450,   451
   452,   453,   454,   455,   456,   457,   458,   459,   460,   461,   462,   463,   464,   465,   466,   467
   480,   481,   482,   483,   484,   485,   486,   487,   488,   489,   490,   491,   492,   493,   509,   510
   511,   512,   513,   514,   515,   516,   517,   518,   519,   520,   521,   522,   523,   524,   525,   526
   527,   528,   529,   530,   531,   532,   533,   534,   535,   536,   537,   538,   539,   540,   541,   542
   543,   544,   545,   546,   547,   548,   549,   550,   551,   552,   553,   623,   624,   625,   626,   627
** ... 200 like lines cut
*Elset, elset=XZ_Face
  6169,  6170,  6171,  6172,  6173,  6174,  6175,  6176,  6177,  6178,  6179,  6180,  6181,  6182,  6183,  6184
  6185,  6186,  6187,  6188,  6189,  6190,  6191,  6192,  6193,  6194,  6195,  6196,  6197,  6198,  6199,  6200
  6201,  6202,  6203,  6204,  6205,  6206,  6207,  6208,  6209,  6210,  6211,  6212,  6213,  6214,  6215,  6216
  6217,  6218,  6219,  6220,  6221,  6222,  6223,  6224,  6225,  6226,  6227,  6228,  6229,  6230,  6231,  6232
  6233,  6234,  6235,  6236,  6237,  6238,  6239,  6240,  6241,  6242,  6243,  6244,  6245,  6246,  6247,  6248
  6249,  6250,  6251,  6252,  6253,  6254,  6255,  6256,  6257,  6258,  6259,  6260,  6261,  6262,  6263,  6264
  6265,  6266,  6267,  6268,  6269,  6270,  6271,  6272,  6273,  6274,  6275,  6276,  6277,  6278,  6279,  6280
  6281,  6282,  6283,  6284,  6285,  6286,  6287,  6288,  6289,  6290,  6291,  6292,  6293,  6294,  6295,  6296
  6297,  6298,  6299,  6300,  6301,  6302,  6303,  6304,  6305,  6306,  6307,  6308,  6309,  6310,  6311,  6312
  6313,  6314,  6315,  6316,  6317,  6318,  6319,  6320,  6321,  6322,  6323,  6324,  6325,  6326,  6327,  6328
  6329,  6330,  6331,  6332,  6333,  6334,  6335,  6336,  6337,  6338,  6339,  6340,  6341,  6342,  6343,  6344
  6345,  6346,  6347,  6348,  6349,  6350,  6351,  6352,  6353,  6354,  6355,  6356,  6357,  6358,  6359,  6360
  6361,  6362,  6363,  6364,  6365,  6366,  6367,  6368,  6369,  6370,  6371,  6372,  6373,  6374,  6375,  6376
  6377,  6378,  6379,  6380,  6381,  6382,  6383,  6384,  6385,  6386,  6387,  6388,  6389,  6390,  6391,  6392
  6393,  6394,  6395,  6396,  6397,  6398,  6399,  6400,  6401,  6402,  6403,  6404,  6405,  6406,  6407,  6408
  6409,  6410,  6411,  6412,  6413,  6414,  6415,  6416,  6417,  6418,  6419,  6420,  6421,  6422,  6423,  6424
  6425,  6426,  6427,  6428,  6429,  6430,  6431,  6432,  6433,  6434,  6435,  6436,  6437,  6438,  6439,  6440
  6441,  6442,  6443,  6444,  6445,  6446,  6447,  6448,  6449,  6450,  6451,  6452,  6453,  6454,  6455,  6456
  6457,  6458,  6459,  6460,  6461,  6462,  6463,  6464,  6465,  6466,  6467,  6468,  6469,  6470,  6471,  6472
  6473,  6474,  6475,  6476,  6477,  6478,  6479,  6480,  6481,  6482,  6483,  6484,  6485,  6486,  6487,  6488
** ... 192 like lines cut
*Nset, nset=YZ_Face
     1,     2,     3,     4,     9,    10,    11,    13,    16,    17,    18,    20,    21,    22,    23,    29
    30,    31,    32,    33,    36,    37,    38,    39,    40,    41,    42,    43,    44,    45,    46,    47
    48,    49,    50,    51,    52,    53,    54,    55,    56,    57,    58,    59,    60,    61,    62,    63
    64,    65,    66,    67,    68,    69,    70,    71,    72,    73,    74,    75,    76,    77,    78,    79
    80,    81,    82,    83,    84,    85,    86,    87,    88,    89,    90,    91,    92,    93,    94,    95
    96,    97,    98,    99,   100,   101,   102,   103,   104,   105,   106,   107,   108,   109,   110,   111
   112,   113,   114,   115,   116,   117,   118,   119,   120,   121,   122,   123,   124,   125,   126,   127
   128,   129,   130,   131,   132,   133,   134,   135,   136,   137,   138,   139,   140,   141,   296,   297
   298,   299,   300,   301,   302,   303,   304,   305,   306,   307,   308,   309,   310,   325,   326,   327
   328,   329,   330,   331,   332,   333,   334,   335,   336,   337,   338,   339,   340,   341,   342,   343
   344,   345,   346,   347,   348,   349,   350,   351,   352,   353,   354,   355,   356,   357,   358,   359
   360,   361,   362,   363,   364,   365,   366,   367,   368,   369,   370,   371,   372,   373,   374,   375
   376,   377,   378,   379,   380,   381,   382,   383,   384,   385,   386,   387,   388,   389,   390,   391
   392,   393,   394,   395,   396,   397,   398,   399,   400,   401,   402,   403,   404,   405,   406,   407
   408,   409,   410,   411,   412,   413,   414,   415,   416,   417,   432,   433,   434,   435,   436,   437
   438,   439,   440,   441,   442,   443,   456,   457,   458,   459,   460,   461,   462,   463,   464,   465
   466,   467,   494,   495,   496,   497,   498,   499,   500,   501,   502,   503,   504,   505,   506,   507
   508,   578,   579,   580,   581,   582,   583,   584,   585,   586,   587,   588,   589,   590,   591,   592
   593,   594,   595,   596,   597,   598,   599,   600,   601,   602,   603,   604,   605,   606,   607,   608
   609,   610,   611,   612,   613,   614,   615,   616,   617,   618,   619,   620,   621,   622,   623,   624
** ... 208 like lines cut
*Elset, elset=YZ_Face
     1,     2,     3,     4,     5,     6,     7,     8,     9,    10,    11,    12,    13,    14,    15,    16
    17,    18,    19,    20,    21,    22,    23,    24,    25,    26,    27,    28,    29,    30,    31,    32
    33,    34,    35,    36,    37,    38,    39,    40,    41,    42,    43,    44,    45,    46,    47,    48
    49,    50,    51,    52,    53,    54,    55,    56,    57,    58,    59,    60,    61,    62,    63,    64
    65,    66,    67,    68,    69,    70,    71,    72,    73,    74,    75,    76,    77,    78,    79,    80
    81,    82,    83,    84,    85,    86,    87,    88,    89,    90,    91,    92,    93,    94,    95,    96
    97,    98,    99,   100,   101,   102,   103,   104,   105,   106,   107,   108,   109,   110,   111,   112
   113,   114,   115,   116,   117,   118,   119,   120,   121,   122,   123,   124,   125,   126,   127,   128
   129,   130,   131,   132,   133,   134,   135,   136,   137,   138,   139,   140,   141,   142,   143,   144
   145,   146,   147,   148,   149,   150,   151,   152,   153,   154,   155,   156,   157,   158,   159,   160
   161,   162,   163,   164,   165,   166,   167,   168,   169,   170,   171,   172,   173,   174,   175,   176
   177,   178,   179,   180,   181,   182,   183,   184,   185,   186,   187,   188,   189,   190,   191,   192
   193,   194,   195,   196,   197,   198,   199,   200,   201,   202,   203,   204,   205,   206,   207,   208
   209,   210,   211,   212,   213,   214,   215,   216,   217,   218,   219,   220,   221,   222,   223,   224
   225,   226,   227,   228,   229,   230,   231,   232,   233,   234,   235,   236,   237,   238,   239,   240
   241,   242,   243,   244,   245,   246,   247,   248,   249,   250,   251,   252,   253,   254,   255,   256
   257,   258,   259,   260,   261,   262,   263,   264,   265,   266,   267,   268,   269,   270,   271,   272
   273,   274,   275,   276,   277,   278,   279,   280,   281,   282,   283,   284,   285,   286,   287,   288
   289,   290,   291,   292,   293,   294,   295,   296,   297,   298,   299,   300,   301,   302,   303,   304
   305,   306,   307,   308,   309,   310,   311,   312,   313,   314,   315,   316,   317,   318,   319,   320
** ... 201 like lines cut
*Nset, nset=Soil_All_Geosta
     1,     2,     3,     4,     5,     6,     7,     8,     9,    10,    11,    12,    13,    14,    15,    16
    17,    18,    22,    23,    24,    25,    26,    27,    28,    29,    30,    31,    36,    37,    38,    39
    40,    41,    42,    43,    44,    45,    46,    47,    48,    49,    50,    51,    52,    53,    54,    55
    56,    57,    58,    59,    60,    61,    62,    63,    64,    65,    66,    67,    68,    69,    70,    71
    72,    73,    74,    75,    76,    77,    78,    79,    80,    81,    82,    83,    84,    85,    86,    87
    88,    89,    90,    91,    92,    93,    94,    95,    96,    97,    98,    99,   100,   101,   102,   103
   104,   105,   106,   107,   108,   109,   110,   111,   112,   113,   114,   115,   116,   117,   118,   119
   120,   121,   122,   123,   124,   125,   126,   127,   128,   129,   130,   131,   132,   133,   134,   135
   136,   137,   138,   139,   140,   141,   142,   143,   144,   145,   146,   147,   148,   149,   150,   151
   152,   153,   154,   155,   156,   157,   158,   159,   160,   161,   162,   163,   164,   165,   166,   167
   168,   169,   170,   171,   172,   173,   174,   175,   176,   177,   178,   179,   180,   181,   182,   183
   184,   185,   186,   187,   188,   189,   190,   191,   192,   193,   194,   195,   196,   197,   198,   199
   200,   201,   202,   203,   204,   205,   206,   207,   208,   209,   210,   211,   212,   213,   214,   215
   216,   217,   218,   219,   220,   221,   222,   223,   224,   225,   226,   227,   228,   229,   230,   231
   232,   233,   234,   235,   236,   237,   238,   239,   240,   241,   242,   243,   244,   245,   246,   247
   248,   249,   250,   251,   252,   253,   254,   255,   256,   257,   258,   259,   260,   261,   262,   263
   264,   265,   266,   267,   268,   269,   270,   271,   272,   273,   274,   275,   276,   277,   278,   279
   280,   281,   282,   283,   284,   285,   286,   287,   288,   289,   290,   291,   292,   293,   294,   295
   296,   297,   298,   299,   300,   301,   302,   303,   304,   305,   306,   307,   308,   309,   310,   311
   312,   313,   314,   315,   316,   317,   318,   319,   320,   321,   322,   323,   324,   325,   326,   327
** ... 2230 like lines cut
*Elset, elset=Soil_All_Geosta
     1,     2,     3,     4,     5,     6,     7,     8,     9,    10,    11,    12,    13,    14,    15,    16
    17,    18,    19,    20,    21,    22,    23,    24,    25,    26,    27,    28,    29,    30,    31,    32
    33,    34,    35,    36,    37,    38,    39,    40,    41,    42,    43,    44,    45,    46,    47,    48
    49,    50,    51,    52,    53,    54,    55,    56,    57,    58,    59,    60,    61,    62,    63,    64
    65,    66,    67,    68,    69,    70,    71,    72,    73,    74,    75,    76,    77,    78,    79,    80
    81,    82,    83,    84,    85,    86,    87,    88,    89,    90,    91,    92,    93,    94,    95,    96
    97,    98,    99,   100,   101,   102,   103,   104,   105,   106,   107,   108,   109,   110,   111,   112
   113,   114,   115,   116,   117,   118,   119,   120,   121,   122,   123,   124,   125,   126,   127,   128
   129,   130,   131,   132,   133,   134,   135,   136,   137,   138,   139,   140,   141,   142,   143,   144
   145,   146,   147,   148,   149,   150,   151,   152,   153,   154,   155,   156,   157,   158,   159,   160
   161,   162,   163,   164,   165,   166,   167,   168,   169,   170,   171,   172,   173,   174,   175,   176
   177,   178,   179,   180,   181,   182,   183,   184,   185,   186,   187,   188,   189,   190,   191,   192
   193,   194,   195,   196,   197,   198,   199,   200,   201,   202,   203,   204,   205,   206,   207,   208
   209,   210,   211,   212,   213,   214,   215,   216,   217,   218,   219,   220,   221,   222,   223,   224
   225,   226,   227,   228,   229,   230,   231,   232,   233,   234,   235,   236,   237,   238,   239,   240
   241,   242,   243,   244,   245,   246,   247,   248,   249,   250,   251,   252,   253,   254,   255,   256
   257,   258,   259,   260,   261,   262,   263,   264,   265,   266,   267,   268,   269,   270,   271,   272
   273,   274,   275,   276,   277,   278,   279,   280,   281,   282,   283,   284,   285,   286,   287,   288
   289,   290,   291,   292,   293,   294,   295,   296,   297,   298,   299,   300,   301,   302,   303,   304
   305,   306,   307,   308,   309,   310,   311,   312,   313,   314,   315,   316,   317,   318,   319,   320
** ... 2002 like lines cut
*Nset, nset=Soil_Void
    14,    15,    16,    17,    18,    19,    20,    21,    23,    25,    32,    33,    34,    35,   512,   513
   514,   515,   516,   517,   518,   519,   520,   521,   554,   555,   556,   557,   558,   559,   560,   561
   562,   563,   564,   565,   566,   567,   568,   569,   570,   571,   572,   573,   574,   575,   576,   577
   610,   611,   612,   613,   614,   615,   616,   617,   618,   619,   655,   656,   657,   658,   659,   660
   661,   662,   663,   664,   665,   666,   667,   668,   669,   670,   671,   672,   673,   674,   675,   676
   677,   678,   679,   680,   681,   682,   683,   684,   685,   686,   687,   688,   689,   690,   691,   692
   693,   694,   695,   696,   697,   698,   699,   700,   701,   702,   703,   704,   705,   706,   707,   708
   709,   710,   711,   712,   713,   714,   715,   716,   717,   718,   719,   720,   721,   722,   723,   724
   725,   726,   727,   728,   729,   730,   731,   732,   733,   734,   735,   736,   737,   738,   739,   740
   741,   742,   743,   744,   745,   746,   747,   748,   749,   750,   751,   752,   753,   754,   755,   756
   757,   758,   759,   760,   769,   770,   771,   772,   773,   774,   775,   776,   780,   781,   782,   783
   784,   785,   786,   787,   788,   789,   790,   791,   815,   816,   817,   818,   819,   820,   821,   822
   965,   966,   967,   968,   969,   970,   971,   972,   973,   974,   975,   976,   977,   978,   979,   980
   981,   982,   983,   984,   985,   986,   987,   988,   989,   990,   991,   992,   993,   994,   995,   996
   997,   998,   999,  1000,  1001,  1002,  1003,  1004,  1005,  1006,  1007,  1008,  1009,  1010,  1011,  1012
  1013,  1014,  1015,  1016,  1017,  1018,  1019,  1020,  1021,  1022,  1023,  1024,  1025,  1026,  1027,  1028
  1029,  1030,  1031,  1032,  1033,  1034,  1035,  1036,  1037,  1038,  1039,  1040,  1041,  1042,  1043,  1044
  1045,  1046,  1047,  1048,  1049,  1050,  1051,  1052,  1053,  1054,  1055,  1056,  1057,  1058,  1059,  1060
  1061,  1062,  1063,  1064,  1065,  1066,  1067,  1068,  1069,  1070,  1071,  1072,  7143,  7144,  7145,  7146
  7147,  7148,  7149,  7150,  7151,  7152,  7153,  7154,  7155,  7156,  7157,  7158,  7159,  7160,  7161,  7162
** ... 376 like lines cut
*Elset, elset=Soil_Void
 27752, 27753, 27754, 27755, 27756, 27757, 27758, 27759, 27760, 27761, 27762, 27763, 27764, 27765, 27766, 27767
 27768, 27769, 27770, 27771, 27772, 27773, 27774, 27775, 27776, 27777, 27778, 27779, 27780, 27781, 27782, 27783
 27784, 27785, 27786, 27787, 27788, 27789, 27790, 27791, 27792, 27793, 27794, 27795, 27796, 27797, 27798, 27799
 27800, 27801, 27802, 27803, 27804, 27805, 27806, 27807, 27808, 27809, 27810, 27811, 27812, 27813, 27814, 27815
 27816, 27817, 27818, 27819, 27820, 27821, 27822, 27823, 27824, 27825, 27826, 27827, 27828, 27829, 27830, 27831
 27832, 27833, 27834, 27835, 27836, 27837, 27838, 27839, 27840, 27841, 27842, 27843, 27844, 27845, 27846, 27847
 27848, 27849, 27850, 27851, 27852, 27853, 27854, 27855, 27856, 27857, 27858, 27859, 27860, 27861, 27862, 27863
 27864, 27865, 27866, 27867, 27868, 27869, 27870, 27871, 27872, 27873, 27874, 27875, 27876, 27877, 27878, 27879
 27880, 27881, 27882, 27883, 27884, 27885, 27886, 27887, 27888, 27889, 27890, 27891, 27892, 27893, 27894, 27895
 27896, 27897, 27898, 27899, 27900, 27901, 27902, 27903, 27904, 27905, 27906, 27907, 27908, 27909, 27910, 27911
 27912, 27913, 27914, 27915, 27916, 27917, 27918, 27919, 27920, 27921, 27922, 27923, 27924, 27925, 27926, 27927
 27928, 27929, 27930, 27931, 27932, 27933, 27934, 27935, 27936, 27937, 27938, 27939, 27940, 27941, 27942, 27943
 27944, 27945, 27946, 27947, 27948, 27949, 27950, 27951, 27952, 27953, 27954, 27955, 27956, 27957, 27958, 27959
 27960, 27961, 27962, 27963, 27964, 27965, 27966, 27967, 27968, 27969, 27970, 27971, 27972, 27973, 27974, 27975
 27976, 27977, 27978, 27979, 27980, 27981, 27982, 27983, 27984, 27985, 27986, 27987, 27988, 27989, 27990, 27991
 27992, 27993, 27994, 27995, 27996, 27997, 27998, 27999, 28000, 28001, 28002, 28003, 28004, 28005, 28006, 28007
 28008, 28009, 28010, 28011, 28012, 28013, 28014, 28015, 28016, 28017, 28018, 28019, 28020, 28021, 28022, 28023
 28024, 28025, 28026, 28027, 28028, 28029, 28030, 28031, 28032, 28033, 28034, 28035, 28036, 28037, 28038, 28039
 28040, 28041, 28042, 28043, 28044, 28045, 28046, 28047, 28048, 28049, 28050, 28051, 28052, 28053, 28054, 28055
 28056, 28057, 28058, 28059, 28060, 28061, 28062, 28063, 28064, 28065, 28066, 28067, 28068, 28069, 28070, 28071
** ... 313 like lines cut
*Nset, nset=Soil_down_Layer
     1,     2,     3,     4,     5,     6,     7,     8,     9,    10,    11,    12,    13,    22,    24,    26
    27,    28,    29,    30,    31,    36,    37,    38,    39,    40,    41,    42,    43,    44,    45,    46
    47,    48,    49,    50,    51,    52,    53,    54,    55,    56,    57,    58,    59,    60,    61,    62
    63,    64,    65,    66,    67,    68,    69,    70,    71,    72,    73,    74,    75,    76,    77,    78
    79,    80,    81,    82,    83,    84,    85,    86,    87,    88,    89,    90,    91,    92,    93,    94
    95,    96,    97,    98,    99,   100,   101,   102,   103,   104,   105,   106,   107,   108,   109,   110
   111,   112,   113,   114,   115,   116,   117,   118,   119,   120,   121,   122,   123,   124,   125,   126
   127,   128,   129,   130,   131,   132,   133,   134,   135,   136,   137,   138,   139,   140,   141,   142
   143,   144,   145,   146,   147,   148,   149,   150,   151,   152,   153,   154,   155,   156,   157,   158
   159,   160,   161,   162,   163,   164,   165,   166,   167,   168,   169,   170,   171,   172,   173,   174
   175,   176,   177,   178,   179,   180,   181,   182,   183,   184,   185,   186,   187,   188,   189,   190
   191,   192,   193,   194,   195,   196,   197,   198,   199,   200,   201,   202,   203,   204,   205,   206
   207,   208,   209,   210,   211,   212,   213,   214,   215,   216,   217,   218,   219,   220,   221,   222
   223,   224,   225,   226,   227,   228,   229,   230,   231,   232,   233,   234,   235,   236,   237,   238
   239,   240,   241,   242,   243,   244,   245,   246,   247,   248,   249,   250,   251,   252,   253,   254
   255,   256,   257,   258,   259,   260,   261,   262,   263,   264,   265,   266,   267,   268,   269,   270
   271,   272,   273,   274,   275,   276,   277,   278,   279,   280,   281,   282,   283,   284,   285,   286
   287,   288,   289,   290,   291,   292,   293,   294,   295,   296,   297,   298,   299,   300,   301,   302
   303,   304,   305,   306,   307,   308,   309,   310,   311,   312,   313,   314,   315,   316,   317,   318
   319,   320,   321,   322,   323,   324,   325,   326,   327,   328,   329,   330,   331,   332,   333,   334
** ... 1692 like lines cut
*Elset, elset=Soil_down_Layer
     1,     2,     3,     4,     5,     6,     7,     8,     9,    10,    11,    12,    13,    14,    15,    16
    17,    18,    19,    20,    21,    22,    23,    24,    25,    26,    27,    28,    29,    30,    31,    32
    33,    34,    35,    36,    37,    38,    39,    40,    41,    42,    43,    44,    45,    46,    47,    48
    49,    50,    51,    52,    53,    54,    55,    56,    57,    58,    59,    60,    61,    62,    63,    64
    65,    66,    67,    68,    69,    70,    71,    72,    73,    74,    75,    76,    77,    78,    79,    80
    81,    82,    83,    84,    85,    86,    87,    88,    89,    90,    91,    92,    93,    94,    95,    96
    97,    98,    99,   100,   101,   102,   103,   104,   105,   106,   107,   108,   109,   110,   111,   112
   113,   114,   115,   116,   117,   118,   119,   120,   121,   122,   123,   124,   125,   126,   127,   128
   129,   130,   131,   132,   133,   134,   135,   136,   137,   138,   139,   140,   141,   142,   143,   144
   145,   146,   147,   148,   149,   150,   151,   152,   153,   154,   155,   156,   157,   158,   159,   160
   161,   162,   163,   164,   165,   166,   167,   168,   169,   170,   171,   172,   173,   174,   175,   176
   177,   178,   179,   180,   181,   182,   183,   184,   185,   186,   187,   188,   189,   190,   191,   192
   193,   194,   195,   196,   197,   198,   199,   200,   201,   202,   203,   204,   205,   206,   207,   208
   209,   210,   211,   212,   213,   214,   215,   216,   217,   218,   219,   220,   221,   222,   223,   224
   225,   226,   227,   228,   229,   230,   231,   232,   233,   234,   235,   236,   237,   238,   239,   240
   241,   242,   243,   244,   245,   246,   247,   248,   249,   250,   251,   252,   253,   254,   255,   256
   257,   258,   259,   260,   261,   262,   263,   264,   265,   266,   267,   268,   269,   270,   271,   272
   273,   274,   275,   276,   277,   278,   279,   280,   281,   282,   283,   284,   285,   286,   287,   288
   289,   290,   291,   292,   293,   294,   295,   296,   297,   298,   299,   300,   301,   302,   303,   304
   305,   306,   307,   308,   309,   310,   311,   312,   313,   314,   315,   316,   317,   318,   319,   320
** ... 1512 like lines cut
*Nset, nset=Soil_Upper_Layer
     1,     2,     5,     6,     9,    14,    15,    16,    17,    18,    22,    23,    24,    25,    36,    37
    38,    39,    40,    41,    42,    43,    44,   142,   143,   144,   145,   146,   147,   148,   149,   150
   151,   152,   153,   154,   155,   156,   157,   158,   159,   160,   161,   162,   163,   164,   165,   190
   191,   192,   193,   194,   195,   196,   197,   198,   296,   297,   298,   299,   300,   301,   302,   303
   304,   305,   306,   307,   308,   309,   310,   311,   312,   313,   314,   315,   316,   317,   318,   319
   320,   321,   322,   323,   324,   509,   510,   511,   512,   513,   514,   515,   516,   517,   518,   519
   520,   521,   522,   523,   524,   525,   526,   527,   528,   529,   530,   531,   532,   533,   534,   535
   536,   537,   538,   539,   540,   541,   542,   543,   544,   545,   546,   547,   548,   549,   550,   551
   552,   553,   554,   555,   556,   557,   558,   559,   560,   561,   562,   563,   564,   565,   566,   567
   568,   569,   570,   571,   572,   573,   574,   575,   576,   577,   578,   579,   580,   581,   582,   583
   584,   585,   586,   587,   588,   589,   590,   591,   592,   593,   594,   595,   596,   597,   598,   599
   600,   601,   602,   603,   604,   605,   606,   607,   608,   609,   610,   611,   612,   613,   614,   615
   616,   617,   618,   619,   620,   621,   622,   623,   624,   625,   626,   627,   628,   629,   630,   631
   632,   633,   634,   635,   636,   637,   638,   639,   640,   641,   642,   643,   644,   645,   646,   647
   648,   649,   650,   651,   652,   653,   654,   655,   656,   657,   658,   659,   660,   661,   662,   663
   664,   665,   666,   667,   668,   669,   670,   671,   672,   673,   674,   675,   676,   677,   678,   679
   680,   681,   682,   683,   761,   762,   763,   764,   765,   766,   767,   768,   769,   770,   771,   772
   773,   774,   775,   776,   777,   778,   779,   780,   781,   782,   783,   784,   785,   786,   787,   788
   789,   790,   791,   792,   793,   794,   795,   796,   797,   798,   799,   800,   801,   802,   803,   804
   805,   806,   807,   808,   809,   810,   811,   812,   813,   814,   815,   816,   817,   818,   819,   820
** ... 546 like lines cut
*Elset, elset=Soil_Upper_Layer
 20391, 20392, 20393, 20394, 20395, 20396, 20397, 20398, 20399, 20400, 20401, 20402, 20403, 20404, 20405, 20406
 20407, 20408, 20409, 20410, 20411, 20412, 20413, 20414, 20415, 20416, 20417, 20418, 20419, 20420, 20421, 20422
 20423, 20424, 20425, 20426, 20427, 20428, 20429, 20430, 20431, 20432, 20433, 20434, 20435, 20436, 20437, 20438
 20439, 20440, 20441, 20442, 20443, 20444, 20445, 20446, 20447, 20448, 20449, 20450, 20451, 20452, 20453, 20454
 20455, 20456, 20457, 20458, 20459, 20460, 20461, 20462, 20463, 20464, 20465, 20466, 20467, 20468, 20469, 20470
 20471, 20472, 20473, 20474, 20475, 20476, 20477, 20478, 20479, 20480, 20481, 20482, 20483, 20484, 20485, 20486
 20487, 20488, 20489, 20490, 20491, 20492, 20493, 20494, 20495, 20496, 20497, 20498, 20499, 20500, 20501, 20502
 20503, 20504, 20505, 20506, 20507, 20508, 20509, 20510, 20511, 20512, 20513, 20514, 20515, 20516, 20517, 20518
 20519, 20520, 20521, 20522, 20523, 20524, 20525, 20526, 20527, 20528, 20529, 20530, 20531, 20532, 20533, 20534
 20535, 20536, 20537, 20538, 20539, 20540, 20541, 20542, 20543, 20544, 20545, 20546, 20547, 20548, 20549, 20550
 20551, 20552, 20553, 20554, 20555, 20556, 20557, 20558, 20559, 20560, 20561, 20562, 20563, 20564, 20565, 20566
 20567, 20568, 20569, 20570, 20571, 20572, 20573, 20574, 20575, 20576, 20577, 20578, 20579, 20580, 20581, 20582
 20583, 20584, 20585, 20586, 20587, 20588, 20589, 20590, 20591, 20592, 20593, 20594, 20595, 20596, 20597, 20598
 20599, 20600, 20601, 20602, 20603, 20604, 20605, 20606, 20607, 20608, 20609, 20610, 20611, 20612, 20613, 20614
 20615, 20616, 20617, 20618, 20619, 20620, 20621, 20622, 20623, 20624, 20625, 20626, 20627, 20628, 20629, 20630
 20631, 20632, 20633, 20634, 20635, 20636, 20637, 20638, 20639, 20640, 20641, 20642, 20643, 20644, 20645, 20646
 20647, 20648, 20649, 20650, 20651, 20652, 20653, 20654, 20655, 20656, 20657, 20658, 20659, 20660, 20661, 20662
 20663, 20664, 20665, 20666, 20667, 20668, 20669, 20670, 20671, 20672, 20673, 20674, 20675, 20676, 20677, 20678
 20679, 20680, 20681, 20682, 20683, 20684, 20685, 20686, 20687, 20688, 20689, 20690, 20691, 20692, 20693, 20694
 20695, 20696, 20697, 20698, 20699, 20700, 20701, 20702, 20703, 20704, 20705, 20706, 20707, 20708, 20709, 20710
** ... 470 like lines cut
*Nset, nset=HorizintalKanten1
    5,    8,   14,   24,   25,   26,   27,   28,   34,   35,  804,  805,  806,  807,  808,  809
  810,  811,  815,  816,  817,  818,  819,  820,  821,  822,  823,  824,  825,  826,  827,  828
  829,  830,  843,  844,  845,  846,  847,  848,  849,  850, 1033, 1034, 1035, 1036, 1037, 1038
 1039, 1040
*Elset, elset=HorizintalKanten1
 30121, 30122, 30123, 30124, 30125, 30126, 30127, 30128, 30129, 30148, 30149, 30150, 30151, 30152, 30153, 30154
 30155, 30156, 30157, 30158, 30159, 30160, 30161, 30162, 30163, 30164, 30165, 30265, 30266, 30267, 30268, 30269
 30270, 30271, 30272, 30273, 34208, 34210, 34212, 34214, 34216, 34220, 34227, 34228, 34237, 34239, 34243, 34244
 34249, 34251, 34253, 34268, 34272, 34276, 35682, 35683, 35684, 35685, 35686, 35687, 35688, 35689, 35690, 35790
 35791, 35792, 35793, 35794, 35795, 35796, 35797, 35798
*Nset, nset=HorizintalKanten3
   2,   3,  17,  22,  23,  29,  30,  31,  32,  33, 761, 762, 763, 764, 765, 766
 767, 768, 769, 770, 771, 772, 773, 774, 775, 776, 899, 900, 901, 902, 903, 904
 905, 906, 919, 920, 921, 922, 923, 924, 925, 926, 977, 978, 979, 980, 981, 982
 983, 984
*Elset, elset=HorizintalKanten3
 29689, 29690, 29691, 29692, 29693, 29694, 29695, 29696, 29697, 29716, 29717, 29718, 29719, 29720, 29721, 29722
 29723, 29724, 31561, 31562, 31563, 31564, 31565, 31566, 31567, 31568, 31569, 31669, 31670, 31671, 31672, 31673
 31674, 31675, 31676, 31677, 33368, 33370, 33372, 33374, 33376, 33380, 33387, 33388, 33397, 33399, 33403, 33404
 33409, 33411, 33413, 33428, 33432, 33436, 34278, 34279, 34280, 34281, 34282, 34283, 34284, 34285, 34286, 34386
 34387, 34388, 34389, 34390, 34391, 34392, 34393, 34394
*Nset, nset=CoreKanten
   1,   4,   6,   7,   9,  10,  15,  16,  18,  19,  20,  21,  64,  65,  66,  67
  68,  69,  70,  71,  72,  73,  74,  75,  76,  77,  78,  79,  80,  81,  82,  83
  84,  85,  86,  87,  88,  89,  90,  91,  92,  93,  94,  95,  96,  97,  98,  99
 100, 101, 102, 103, 104, 105, 106, 107, 108, 109, 110, 111, 112, 113, 114, 115
 116, 117, 118, 119, 120, 121, 122, 123, 124, 125, 126, 127, 128, 129, 130, 131
 132, 133, 134, 135, 136, 137, 138, 139, 140, 141, 154, 155, 156, 157, 158, 159
 160, 161, 162, 163, 164, 165, 166, 167, 168, 169, 170, 171, 172, 173, 174, 175
 176, 177, 199, 200, 201, 202, 203, 204, 205, 206, 207, 208, 209, 210, 211, 212
 213, 214, 215, 216, 217, 218, 219, 220, 221, 222, 223, 224, 225, 226, 227, 228
 229, 230, 231, 232, 233, 234, 235, 236, 237, 238, 239, 240, 241, 242, 243, 244
 245, 246, 247, 248, 249, 250, 251, 252, 253, 254, 255, 256, 257, 258, 259, 260
 261, 262, 263, 264, 265, 266, 267, 268, 269, 270, 271, 272, 273, 274, 275, 276
 296, 297, 298, 299, 300, 301, 302, 303, 304, 305, 306, 307, 308, 309, 310, 311
 312, 313, 314, 315, 316, 317, 318, 319, 320, 321, 322, 323, 324, 325, 326, 327
 328, 329, 330, 331, 332, 333, 334, 335, 336, 337, 338, 339, 340, 341, 342, 343
 344, 345, 346, 347, 348, 349, 350, 351, 352, 353, 354, 355, 356, 357, 358, 359
 360, 361, 362, 363, 364, 365, 366, 367, 368, 369, 370, 371, 372, 373, 374, 375
 376, 377, 378, 379, 380, 381, 382, 383, 384, 385, 386, 387, 388, 389, 390, 391
 392, 393, 394, 395, 396, 397, 398, 399, 400, 401, 402, 403, 404, 405, 406, 407
 408, 409, 410, 411, 412, 413, 414, 415, 416, 417, 418, 419, 420, 421, 422, 423
** ... 14 like lines cut
*Elset, elset=CoreKanten
    13,    14,    27,    28,    29,    30,    31,    32,    33,    35,    36,    37,    38,    39,    40,    41
    42,    43,    44,    45,    46,    47,    48,    49,    50,    51,    52,    53,    54,    55,    56,    57
    58,    59,    60,    61,    62,    63,    64,    65,    66,    67,    68,    69,    70,    71,    72,    73
    74,    75,    76,    77,    78,    79,    80,    81,    82,    83,    84,    85,    86,    87,    88,    89
    90,    93,    95,    97,    99,   100,   103,   105,   108,   110,   124,   132,   138,   157,   162,   542
   543,  1056,  1057,  1570,  1571,  2084,  2085,  2598,  2599,  3112,  3113,  3626,  3627,  4140,  4141,  4654
  4655,  5168,  5169,  5682,  5683,  6181,  6182,  6195,  6196,  6197,  6198,  6199,  6200,  6201,  6203,  6204
  6205,  6206,  6207,  6208,  6209,  6210,  6211,  6212,  6213,  6214,  6215,  6216,  6217,  6218,  6219,  6220
  6221,  6222,  6223,  6224,  6225,  6226,  6227,  6228,  6229,  6230,  6231,  6232,  6233,  6234,  6235,  6236
  6237,  6238,  6239,  6240,  6241,  6242,  6243,  6244,  6245,  6246,  6247,  6248,  6249,  6250,  6251,  6252
  6253,  6254,  6255,  6256,  6257,  6258,  6261,  6263,  6265,  6267,  6268,  6271,  6273,  6276,  6278,  6292
  6300,  6306,  6325,  6330,  6683,  6684,  6686,  6687,  6688,  6690,  6691,  6692,  6694,  6695,  6696,  6697
  6698,  6699,  6700,  6704,  6706,  6707,  6709,  6710,  6711,  6712,  6713,  6714,  6724,  6725,  6732,  6734
  6738,  6742,  6748,  6750,  6764,  6778,  6805,  6813,  6814,  6818,  6819,  6824,  6825,  6849,  6862,  6863
  6998,  7011,  7012,  7147,  7160,  7161,  7296,  7309,  7310,  7445,  7458,  7459,  7594,  7607,  7608,  7743
  7756,  7757,  7892,  7905,  7906,  8041,  8054,  8055,  8190,  8203,  8204,  8339,  8352,  8353,  8488,  8501
  8502,  8637,  8650,  8651,  8786,  8799,  8800,  8935,  8948,  8949,  9084,  9097,  9098,  9233,  9246,  9247
  9382,  9395,  9396,  9531,  9544,  9545,  9680,  9693,  9694,  9829,  9842,  9843,  9978,  9991,  9992, 10127
 10140, 10141, 10276, 10289, 10290, 10425, 10438, 10439, 10574, 10587, 10588, 10723, 10736, 10737, 10872, 10885
 10886, 11021, 11034, 11035, 11170, 11183, 11184, 11319, 11332, 11333, 11468, 11481, 11482, 11617, 11630, 11631
** ... 41 like lines cut
*Nset, nset=CoreKanten_Biased
   1,   4,   6,   7,   9,  10,  11,  12,  13,  15,  16,  18,  19,  20,  21, 296
 297, 298, 299, 300, 301, 302, 303, 304, 305, 306, 307, 308, 309, 310, 311, 312
 313, 314, 315, 316, 317, 318, 319, 320, 321, 322, 323, 324, 403, 404, 405, 406
 407, 408, 409, 410, 411, 412, 413, 414, 415, 416, 417, 418, 419, 420, 421, 422
 423, 424, 425, 426, 427, 428, 429, 430, 431, 480, 481, 482, 483, 484, 485, 486
 487, 488, 489, 490, 491, 492, 493, 494, 495, 496, 497, 498, 499, 500, 501, 502
 503, 504, 505, 506, 507, 508, 655, 656, 657, 658, 659, 660, 661, 662, 663, 664
 665, 666, 667, 668, 669, 670, 671, 672, 673, 674, 675, 676, 677, 678, 679, 680
 681, 682, 683, 732, 733, 734, 735, 736, 737, 738, 739, 740, 741, 742, 743, 744
 745, 746, 747, 748, 749, 750, 751, 752, 753, 754, 755, 756, 757, 758, 759, 760
*Elset, elset=CoreKanten_Biased
  6683,  6684,  6686,  6687,  6688,  6690,  6691,  6692,  6694,  6695,  6696,  6697,  6698,  6699,  6700,  6704
  6706,  6707,  6709,  6710,  6711,  6712,  6713,  6714,  6724,  6725,  6732,  6738,  6748,  6750, 18305, 18306
 18308, 18309, 18310, 18312, 18313, 18314, 18316, 18317, 18318, 18319, 18320, 18321, 18322, 18326, 18328, 18329
 18331, 18332, 18333, 18334, 18335, 18336, 18346, 18347, 18354, 18360, 18370, 18372, 18454, 18455, 18457, 18458
 18459, 18461, 18462, 18463, 18465, 18466, 18467, 18468, 18469, 18470, 18471, 18475, 18477, 18478, 18480, 18481
 18482, 18483, 18484, 18485, 18495, 18496, 18503, 18509, 18519, 18521, 20242, 20243, 20245, 20246, 20247, 20249
 20250, 20251, 20253, 20254, 20255, 20256, 20257, 20258, 20259, 20263, 20265, 20266, 20268, 20269, 20270, 20271
 20272, 20273, 20283, 20284, 20291, 20297, 20307, 20309, 22835, 22836, 22838, 22839, 22840, 22842, 22843, 22844
 22846, 22847, 22848, 22849, 22850, 22851, 22852, 22856, 22858, 22859, 22861, 22862, 22863, 22864, 22865, 22866
 22876, 22877, 22884, 22890, 22900, 22902, 27603, 27604, 27606, 27607, 27608, 27610, 27611, 27612, 27614, 27615
 27616, 27617, 27618, 27619, 27620, 27624, 27626, 27627, 27629, 27630, 27631, 27632, 27633, 27634, 27644, 27645
 27652, 27658, 27668, 27670, 27752, 27753, 27755, 27756, 27757, 27759, 27760, 27761, 27763, 27764, 27765, 27766
 27767, 27768, 27769, 27773, 27775, 27776, 27778, 27779, 27780, 27781, 27782, 27783, 27793, 27794, 27801, 27807
 27817, 27819, 29540, 29541, 29543, 29544, 29545, 29547, 29548, 29549, 29551, 29552, 29553, 29554, 29555, 29556
 29557, 29561, 29563, 29564, 29566, 29567, 29568, 29569, 29570, 29571, 29581, 29582, 29589, 29595, 29605, 29607
*Nset, nset=CoreKanten2
   2,   3,   5,   8,  14,  17,  45,  46,  47,  48,  49,  50,  51,  52,  53,  54
 286, 287, 288, 289, 290, 291, 292, 293, 294, 295, 509, 510, 511, 620, 621, 622
*Elset, elset=CoreKanten2
     3,    19,   314,   431,   434,   454,   456,   463,   465,   468,   471,  6171,  6187,  6482,  6599,  6602
  6622,  6624,  6631,  6633,  6636,  6639, 20400, 20403, 20562, 20566, 22656, 22659, 22818, 22822, 29697, 29706
 29715, 29724, 30129, 30138, 30147, 30156, 33386, 33387, 33388, 33389, 33390, 33391, 33392, 33393, 33394, 33395
 33400, 34226, 34227, 34228, 34229, 34230, 34231, 34232, 34233, 34234, 34235, 34240
*Nset, nset=OuterKanten
    1,    2,    3,    4,    5,    6,    7,    8,   11,   12,   14,   15,   16,   17,   19,   20
   22,   23,   24,   25,   26,   27,   28,   29,   30,   31,   32,   33,   34,   35,  142,  143
  144,  145,  146,  147,  148,  149,  150,  151,  152,  153,  154,  155,  156,  157,  158,  159
  160,  161,  162,  163,  164,  165,  166,  167,  168,  169,  170,  171,  172,  173,  174,  175
  176,  177,  178,  179,  180,  181,  182,  183,  184,  185,  186,  187,  188,  189,  468,  469
  470,  471,  472,  473,  474,  475,  476,  477,  478,  479,  554,  555,  556,  557,  558,  559
  560,  561,  562,  563,  564,  565,  566,  567,  568,  569,  570,  571,  572,  573,  574,  575
  576,  577,  720,  721,  722,  723,  724,  725,  726,  727,  728,  729,  730,  731,  780,  781
  782,  783,  784,  785,  786,  787,  788,  789,  790,  791,  792,  793,  794,  795,  796,  797
  798,  799,  800,  801,  802,  803,  863,  864,  865,  866,  867,  868,  869,  870,  871,  872
  873,  874,  875,  876,  877,  878,  879,  880,  881,  882,  883,  884,  885,  886,  887,  888
  889,  890,  891,  892,  893,  894,  895,  896,  897,  898,  997,  998,  999, 1000, 1001, 1002
 1003, 1004, 1005, 1006, 1007, 1008, 1009, 1010, 1011, 1012, 1013, 1014, 1015, 1016, 1017, 1018
 1019, 1020
*Elset, elset=OuterKanten
     3,    19,    28,    29,   517,   533,   542,   543,  1031,  1047,  1056,  1057,  1545,  1561,  1570,  1571
  2059,  2075,  2084,  2085,  2573,  2589,  2598,  2599,  3087,  3103,  3112,  3113,  3601,  3617,  3626,  3627
  4115,  4131,  4140,  4141,  4629,  4645,  4654,  4655,  5143,  5159,  5168,  5169,  5657,  5673,  5682,  5683
  6171,  6187,  6196,  6197,  6713,  6714,  6734,  6742,  6764,  6778,  6805,  6813,  6814,  6818,  6819,  6824
  6825, 18335, 18336, 18356, 18364, 18386, 18400, 18427, 18435, 18436, 18440, 18441, 18446, 18447, 18484, 18485
 18505, 18513, 18535, 18549, 18576, 18584, 18585, 18589, 18590, 18595, 18596, 20272, 20273, 20293, 20301, 20323
 20337, 20364, 20372, 20373, 20377, 20378, 20383, 20384, 20400, 20403, 20404, 20411, 20588, 20591, 20592, 20599
 20776, 20779, 20780, 20787, 20964, 20967, 20968, 20975, 21152, 21155, 21156, 21163, 21340, 21343, 21344, 21351
 21528, 21531, 21532, 21539, 21716, 21719, 21720, 21727, 21904, 21907, 21908, 21915, 22092, 22095, 22096, 22103
 22280, 22283, 22284, 22291, 22468, 22471, 22472, 22479, 22656, 22659, 22660, 22667, 22865, 22866, 22886, 22894
 22916, 22930, 22957, 22965, 22966, 22970, 22971, 22976, 22977, 27633, 27634, 27654, 27662, 27684, 27698, 27725
 27733, 27734, 27738, 27739, 27744, 27745, 27782, 27783, 27803, 27811, 27833, 27847, 27874, 27882, 27883, 27887
 27888, 27893, 27894, 29570, 29571, 29591, 29599, 29621, 29635, 29662, 29670, 29671, 29675, 29676, 29681, 29682
 29689, 29697, 29716, 29724, 29725, 29733, 29752, 29760, 29761, 29769, 29788, 29796, 29797, 29805, 29824, 29832
 29833, 29841, 29860, 29868, 29869, 29877, 29896, 29904, 29905, 29913, 29932, 29940, 29941, 29949, 29968, 29976
 29977, 29985, 30004, 30012, 30013, 30021, 30040, 30048, 30049, 30057, 30076, 30084, 30085, 30093, 30112, 30120
 30121, 30129, 30148, 30156, 30157, 30165, 30265, 30273, 30274, 30282, 30382, 30390, 30391, 30399, 30499, 30507
 30508, 30516, 30616, 30624, 30625, 30633, 30733, 30741, 30742, 30750, 30850, 30858, 30859, 30867, 30967, 30975
 30976, 30984, 31084, 31092, 31093, 31101, 31201, 31209, 31210, 31218, 31318, 31326, 31327, 31335, 31435, 31443
 31444, 31452, 31552, 31560, 31561, 31569, 31669, 31677, 31678, 31687, 31798, 31807, 31808, 31817, 31928, 31937
** ... 13 like lines cut
*Nset, nset=VoidKanten
   14,   15,   16,   17,   18,   19,   20,   21,   23,   25,   32,   33,   34,   35,  684,  685
  686,  687,  688,  689,  690,  691,  692,  693,  694,  695,  696,  697,  698,  699,  700,  701
  702,  703,  704,  705,  706,  707,  708,  709,  710,  711,  712,  713,  714,  715,  716,  717
  718,  719,  965,  966,  967,  968,  969,  970,  971,  972,  973,  974,  975,  976,  985,  986
  987,  988,  989,  990,  991,  992,  993,  994,  995,  996, 1021, 1022, 1023, 1024, 1025, 1026
 1027, 1028, 1029, 1030, 1031, 1032, 1041, 1042, 1043, 1044, 1045, 1046, 1047, 1048, 1049, 1050
 1051, 1052
*Elset, elset=VoidKanten
 27769, 27782, 27783, 27918, 27931, 27932, 28067, 28080, 28081, 28216, 28229, 28230, 28365, 28378, 28379, 28514
 28527, 28528, 28663, 28676, 28677, 28812, 28825, 28826, 28961, 28974, 28975, 29110, 29123, 29124, 29259, 29272
 29273, 29408, 29421, 29422, 29557, 29570, 29571, 34278, 34286, 34287, 34295, 34296, 34304, 34305, 34313, 34314
 34322, 34323, 34331, 34332, 34340, 34341, 34349, 34350, 34358, 34359, 34367, 34368, 34376, 34377, 34385, 34386
 34394, 35682, 35690, 35691, 35699, 35700, 35708, 35709, 35717, 35718, 35726, 35727, 35735, 35736, 35744, 35745
 35753, 35754, 35762, 35763, 35771, 35772, 35780, 35781, 35789, 35790, 35798, 35799, 35809, 35810, 35820, 35821
 35831, 35832, 35842, 35843, 35853, 35854, 35864, 35865, 35875, 35876, 35886, 35887, 35897, 35898, 35908, 35909
 35919, 35920, 35930, 35931, 35941, 37515, 37525, 37526, 37536, 37537, 37547, 37548, 37558, 37559, 37569, 37570
 37580, 37581, 37591, 37592, 37602, 37603, 37613, 37614, 37624, 37625, 37635, 37636, 37646, 37647, 37657
*Nset, nset=HorizintalKanten_mini1
    5,    6,    7,    8,   12,   14,   15,   19,   27,   35,  190,  191,  192,  193,  194,  195
  196,  197,  198,  277,  278,  279,  280,  281,  282,  283,  284,  285,  512,  513,  514,  515
  516,  517,  518,  519,  520,  521,  948,  949,  950,  951,  952,  953,  954,  955,  956, 1053
 1054, 1055, 1056, 1057, 1058, 1059, 1060, 1061, 1062
*Elset, elset=HorizintalKanten_mini1
  6171,  6172,  6180,  6187,  6196,  6197,  6288,  6291,  6303,  6307,  6322,  6324,  6332,  6340,  6363,  6384
  6386,  6387,  6563,  6629, 20391, 20399, 20400, 20402, 20403, 20404, 20411, 20439, 20446, 20450, 20460, 20462
 20465, 20470, 20477, 20490, 20500, 20507, 20519, 20526, 20532, 33238, 33239, 33240, 33241, 33242, 33243, 33244
 33245, 33246, 33247, 33358, 33359, 33360, 33361, 33362, 33363, 33364, 33365, 33366, 33367, 35799, 35800, 35801
 35802, 35803, 35804, 35805, 35806, 35807, 35808, 35809, 35931, 35932, 35933, 35934, 35935, 35936, 35937, 35938
 35939, 35940, 35941
*Nset, nset=HorizintalKanten_mini3
    1,    2,    3,    4,   11,   16,   17,   20,   31,   32,   36,   37,   38,   39,   40,   41
   42,   43,   44,   55,   56,   57,   58,   59,   60,   61,   62,   63,  610,  611,  612,  613
  614,  615,  616,  617,  618,  619,  939,  940,  941,  942,  943,  944,  945,  946,  947, 1063
 1064, 1065, 1066, 1067, 1068, 1069, 1070, 1071, 1072
*Elset, elset=HorizintalKanten_mini3
     3,     4,    12,    19,    28,    29,   120,   123,   135,   139,   154,   156,   164,   172,   195,   216
   218,   219,   395,   461, 22647, 22655, 22656, 22658, 22659, 22660, 22667, 22695, 22702, 22706, 22716, 22718
 22721, 22726, 22733, 22746, 22756, 22763, 22775, 22782, 22788, 31678, 31679, 31680, 31681, 31682, 31683, 31684
 31685, 31686, 31687, 31798, 31799, 31800, 31801, 31802, 31803, 31804, 31805, 31806, 31807, 37515, 37516, 37517
 37518, 37519, 37520, 37521, 37522, 37523, 37524, 37525, 37647, 37648, 37649, 37650, 37651, 37652, 37653, 37654
 37655, 37656, 37657
*Nset, nset=UntenVertikal
   3,   4,   7,   8,  10,  11,  12,  13,  26,  27,  28,  29,  30,  31, 432, 433
 434, 435, 436, 437, 438, 439, 440, 441, 442, 443, 444, 445, 446, 447, 448, 449
 450, 451, 452, 453, 454, 455, 456, 457, 458, 459, 460, 461, 462, 463, 464, 465
 466, 467, 831, 832, 833, 834, 835, 836, 837, 838, 839, 840, 841, 842, 851, 852
 853, 854, 855, 856, 857, 858, 859, 860, 861, 862, 907, 908, 909, 910, 911, 912
 913, 914, 915, 916, 917, 918, 927, 928, 929, 930, 931, 932, 933, 934, 935, 936
 937, 938
*Elset, elset=UntenVertikal
 18471, 18484, 18485, 18620, 18633, 18634, 18769, 18782, 18783, 18918, 18931, 18932, 19067, 19080, 19081, 19216
 19229, 19230, 19365, 19378, 19379, 19514, 19527, 19528, 19663, 19676, 19677, 19812, 19825, 19826, 19961, 19974
 19975, 20110, 20123, 20124, 20259, 20272, 20273, 30157, 30165, 30166, 30174, 30175, 30183, 30184, 30192, 30193
 30201, 30202, 30210, 30211, 30219, 30220, 30228, 30229, 30237, 30238, 30246, 30247, 30255, 30256, 30264, 30265
 30273, 31561, 31569, 31570, 31578, 31579, 31587, 31588, 31596, 31597, 31605, 31606, 31614, 31615, 31623, 31624
 31632, 31633, 31641, 31642, 31650, 31651, 31659, 31660, 31668, 31669, 31677, 31678, 31687, 31688, 31697, 31698
 31707, 31708, 31717, 31718, 31727, 31728, 31737, 31738, 31747, 31748, 31757, 31758, 31767, 31768, 31777, 31778
 31787, 31788, 31797, 31798, 31807, 33238, 33247, 33248, 33257, 33258, 33267, 33268, 33277, 33278, 33287, 33288
 33297, 33298, 33307, 33308, 33317, 33318, 33327, 33328, 33337, 33338, 33347, 33348, 33357, 33358, 33367
*Nset, nset=CoreKanten_medial
     4,     7,    10,    11,    12,    13,   166,   167,   168,   169,   170,   171,   172,   173,   174,   175
   176,   177,   403,   404,   405,   406,   407,   408,   409,   410,   411,   412,   413,   414,   415,   416
   417,   418,   419,   420,   421,   422,   423,   424,   425,   426,   427,   428,   429,   430,   431,   432
   433,   434,   435,   436,   437,   438,   439,   440,   441,   442,   443,   444,   445,   446,   447,   448
   449,   450,   451,   452,   453,   454,   455,   456,   457,   458,   459,   460,   461,   462,   463,   464
   465,   466,   467,   468,   469,   470,   471,   472,   473,   474,   475,   476,   477,   478,   479,   480
   481,   482,   483,   484,   485,   486,   487,   488,   489,   490,   491,   492,   493,   494,   495,   496
   497,   498,   499,   500,   501,   502,   503,   504,   505,   506,   507,   508,  3393,  3394,  3395,  3396
  3397,  3398,  3399,  3400,  3401,  3402,  3403,  3404,  3405,  3406,  3407,  3408,  3409,  3410,  3411,  3412
  3413,  3414,  3415,  3416,  3417,  3418,  3419,  3420,  3421,  3422,  3423,  3424,  3425,  3426,  3427,  3428
  3429,  3430,  3431,  3432,  3433,  3434,  3435,  3436,  3437,  3438,  3439,  3440,  3441,  3442,  3443,  3444
  3445,  3446,  3447,  3448,  3449,  3450,  3451,  3452,  3453,  3454,  3455,  3456,  3457,  3458,  3459,  3460
  3461,  3462,  3463,  3464,  3465,  3466,  3467,  3468,  3469,  3470,  3471,  3472,  3473,  3474,  3475,  3476
  3477,  3478,  3479,  3480,  3481,  3482,  3483,  3484,  3485,  3486,  3487,  3488,  3489,  3490,  3491,  3492
  3493,  3494,  3495,  3496,  3497,  3498,  3499,  3500,  3501,  3502,  3503,  3504,  3505,  3506,  3507,  3508
  3509,  3510,  3511,  3512,  3513,  3514,  3515,  3516,  3517,  3518,  3519,  3520,  5783,  5784,  5785,  5786
  5787,  5788,  5789,  5790,  5791,  5792,  5793,  5794,  5795,  5796,  5797,  5798,  5799,  5800,  5801,  5802
  5803,  5804,  5805,  5806,  5807,  5808,  5809,  5810,  5811,  5812,  5813,  5814,  5815,  5816,  5817,  5818
  5819,  5820,  5821,  5822,  5823,  5824,  5825,  5826,  5827,  5828,  5829,  5830,  5831,  5832,  5833,  5834
  5835,  5836,  5837,  5838,  5839,  5840,  5841,  5842,  5843,  5844,  5845,  5846,  5847,  5848,  5849,  5850
** ... 131 like lines cut
*Elset, elset=CoreKanten_medial, generate
 18454,  20390,      1
** Section: secEuler
*Eulerian Section, elset=Soil_All
HYPO-VW96-Sand, imatHYPO-VW96-Sand
*Surface, type=EULERIAN MATERIAL, name=imatHYPO-VW96-Sand
imatHYPO-VW96-Sand
*End Part
**  
**
** ASSEMBLY
**
*Assembly, name=Assembly
**  
*Instance, name=Pile-1, part=Pile
          0.,           0.,          26.
*End Instance
**  
*Instance, name=Soil-1, part=Soil
*End Instance
**  
*Instance, name=Presse-1, part=Presse
          0.,           0.,          37.
*End Instance
**  
*Surface, type=NODE, name=Presse-1_Presse_Unten_CNS_, internal
Presse-1.Presse_Unten, 1.
*Surface, type=NODE, name=Pile-1_Force_Application_CNS_, internal
Pile-1.Force_Application, 1.
** Constraint: Presse_rigid_body
*Rigid Body, ref node=Presse-1.Presse_RP, elset=Presse-1.Presse_All
** Constraint: tie
*Tie, name=tie, adjust=yes
Pile-1_Force_Application_CNS_, Presse-1_Presse_Unten_CNS_
*End Assembly
*Amplitude, name=Amp_Einpressen
             0.,              0.,              9.,              1.
** 
** MATERIALS
** 
*Material, name=HYPO-VW96-Sand
*Density
 4.92,
*Elastic
30000., 0.25
*Mohr Coulomb
 31.5,9.
*Mohr Coulomb Hardening
 0.1,0.
*Material, name=Stahl
*Density
 23.4,
*Elastic
 2.1e+08, 0.3
**
** INTERACTION PROPERTIES
** 
*Surface Interaction, name=Kontakt
*Friction
 0.15,
*Surface Behavior, pressure-overclosure=HARD
** 
** BOUNDARY CONDITIONS
** 
** Name: Back Type: Displacement/Rotation
*Boundary
Soil-1.Back, 1, 1
Soil-1.Back, 2, 2
** Name: Bottom Type: Displacement/Rotation
*Boundary
Soil-1.Bottom, 3, 3
** Name: Eindringen_Presse Type: Displacement/Rotation
*Boundary
Presse-1.Presse_RP, 1, 1
Presse-1.Presse_RP, 2, 2
Presse-1.Presse_RP, 3, 3
Presse-1.Presse_RP, 4, 4
Presse-1.Presse_RP, 5, 5
Presse-1.Presse_RP, 6, 6
** Name: Symmetrie_Pile Type: Displacement/Rotation
*Boundary
Pile-1.Pile_All, 1, 1
Pile-1.Pile_All, 2, 2
Pile-1.Pile_All, 4, 4
Pile-1.Pile_All, 5, 5
Pile-1.Pile_All, 6, 6
** Name: XZ_Face Type: Symmetry/Antisymmetry/Encastre
*Boundary
Soil-1.XZ_Face, YSYMM
** Name: YZ_Face Type: Symmetry/Antisymmetry/Encastre
*Boundary
Soil-1.YZ_Face, XSYMM
** 
** PREDEFINED FIELDS
** 
** Name: K0   Type: Geostatic stress
*Initial Conditions, type=STRESS, GEOSTATIC
Soil-1.Soil_All_Geosta, 0., 26., -418.298, 0., 0.5, 0.5
** Name: Materialzuweisung   Type: Material assignment
*Initial Conditions, type=VOLUME FRACTION
Soil-1.Soil_All_Geosta, Soil-1.imatHYPO-VW96-Sand, 1.
** 
** INTERACTIONS
** 
** Interaction: Allgemeinkontakt
*Contact, op=NEW
*Contact Inclusions, ALL EXTERIOR
*Contact Property Assignment
 ,  , Kontakt
** ----------------------------------------------------------------
** 
** STEP: Schwerkraft
** 
*Step, name=Schwerkraft, nlgeom=YES
*Dynamic, Explicit
, 0.1
*Bulk Viscosity
0.42, 1.2
** 
** LOADS
** 
** Name: Schwerkraft   Type: Gravity
*Dload
Soil-1.Soil_All, GRAV, 3.27, 0., 0., -1.
** 
** OUTPUT REQUESTS
** 
*Restart, write, number interval=1, time marks=NO
** 
** FIELD OUTPUT: all-profil-vol
** 
*Output, field, time interval=0.1
*Node Output, nset=Pile-1.Pile_All
U, 
*Element Output, elset=Pile-1.Pile_All, directions=YES
S, 
** 
** FIELD OUTPUT: FieldOutSoil
** 
*Node Output, nset=Soil-1.Soil_All
A, U
*Element Output, elset=Soil-1.Soil_All, directions=YES
EVF, SVAVG
** 
** HISTORY OUTPUT: mantel
** 
*Output, history, time interval=0.01
*Contact Output, surface=Pile-1.Mantel
CFS3, 
** 
** HISTORY OUTPUT: RF
** 
*Node Output, nset=Presse-1.Presse_RP
RF1, RF2, RF3, RM3, U3
** 
** HISTORY OUTPUT: spitzendruck
** 
*Contact Output, surface=Pile-1.spitzendruck
CFN3, 
*End Step
** ----------------------------------------------------------------
** 
** STEP: Einpressen
** 
*Step, name=Einpressen, nlgeom=YES
*Dynamic, Explicit
, 9.
*Bulk Viscosity
0.42, 1.2
** 
** BOUNDARY CONDITIONS
** 
** Name: Eindringen_Presse Type: Displacement/Rotation
*Boundary, amplitude=Amp_Einpressen
Presse-1.Presse_RP, 1, 1
Presse-1.Presse_RP, 2, 2
Presse-1.Presse_RP, 3, 3, -9.
Presse-1.Presse_RP, 4, 4
Presse-1.Presse_RP, 5, 5
Presse-1.Presse_RP, 6, 6
** 
** OUTPUT REQUESTS
** 
*Restart, write, number interval=1, time marks=NO
** 
** FIELD OUTPUT: all-profil-vol
** 
*Output, field, time interval=0.1
*Node Output, nset=Pile-1.Pile_All
U, 
*Element Output, elset=Pile-1.Pile_All, directions=YES
S, 
** 
** FIELD OUTPUT: FieldOutSoil
** 
*Node Output, nset=Soil-1.Soil_All
A, U
*Element Output, elset=Soil-1.Soil_All, directions=YES
EVF, SVAVG
** 
** HISTORY OUTPUT: mantel
** 
*Output, history, time interval=0.01
*Contact Output, surface=Pile-1.Mantel
CFS3, 
** 
** HISTORY OUTPUT: RF
** 
*Node Output, nset=Presse-1.Presse_RP
RF1, RF2, RF3, RM3, U3
** 
** HISTORY OUTPUT: spitzendruck
** 
*Contact Output, surface=Pile-1.spitzendruck
CFN3, 
*End Step
